Mass Spectrum: N-Acetylethylenediamine
Formula: C4 H10 N2 O
CAS: 1001-53-2
Molecular weight: 102
Origin: NIST Mass Spectrometry Data Center
m/z	RELATIVE INTENSITY
13	140
14	140
15	691
16	60
18	240
26	40
28	2272
29	490
30	9999
31	1141
32	160
34	60
39	30
40	60
41	220
42	1611
43	7917
44	711
45	941
52	80
53	120
56	40
58	591
59	360
60	440
70	90
73	3613
74	140
