Mass Spectrum: Acetaldehyde, (2,4-dinitrophenyl)hydrazone
Formula: C8 H8 N4 O4
CAS: 1019-57-4
Molecular weight: 224
Origin: D.HENNEBERG, MAX-PLANCK INSTITUTE, MULHEIM, WEST GERMANY
m/z	RELATIVE INTENSITY
26	337
27	1741
28	2697
29	241
30	3946
31	54
32	60
33	11
34	15
35	11
37	28
38	375
39	1893
40	464
41	794
42	3961
43	1866
44	208
45	1608
46	72
47	10
48	12
50	447
51	4185
52	2064
53	749
54	397
55	620
56	212
57	85
58	83
59	15
60	14
61	43
62	579
63	2806
64	2182
65	1014
66	739
67	314
68	360
69	55
70	668
71	31
73	20
74	177
75	2016
76	1501
77	6112
78	7243
79	9999
80	1015
81	135
82	120
83	19
84	30
87	32
88	189
89	579
90	1448
91	1587
92	1691
93	516
94	159
95	104
96	18
98	30
101	119
102	745
103	1159
104	1542
105	837
106	772
107	320
108	71
109	19
111	20
112	86
114	14
115	64
116	291
117	343
118	173
119	271
120	167
121	87
122	2285
123	177
124	16
129	74
130	133
131	896
132	270
133	283
134	92
135	146
136	57
137	100
138	38
144	65
145	103
146	67
147	107
148	38
149	102
150	56
151	37
152	1922
153	218
154	16
160	107
161	63
162	92
163	85
164	56
165	41
166	58
167	28
168	16
175	16
176	48
177	40
178	64
179	33
180	1799
181	670
182	102
183	47
190	133
191	55
192	18
193	59
194	67
195	12
196	128
197	11
206	21
207	15
208	178
209	73
222	26
223	56
224	8510
225	921
226	129
227	13
228	37
229	8
