Mass Spectrum: Butanoic acid, 3,3-dimethyl-, methyl ester
Formula: C7 H14 O2
CAS: 10250-48-3
Molecular weight: 130
Origin: Chemical Concepts
m/z	RELATIVE INTENSITY
20	6
25	33
26	106
27	1653
28	537
29	3275
30	101
31	247
32	47
33	29
37	29
38	101
39	1700
40	264
41	4268
42	548
43	3424
44	178
45	161
46	16
49	7
50	75
51	135
52	43
53	332
54	95
55	2436
56	841
57	9999
58	439
59	1955
60	50
61	9
63	6
65	9
66	6
67	36
68	12
69	161
70	52
71	383
72	38
73	8436
74	8910
75	527
76	47
81	5
82	63
83	1019
84	56
85	10
86	17
87	30
97	10
99	2103
100	146
101	12
113	5
114	48
115	573
116	40
119	12
130	138
131	29
