Mass Spectrum: Benzene, n-butyl-
Formula: C10 H14
CAS: 104-51-8
Molecular weight: 134
Origin: Japan AIST/NIMC Database- Spectrum MS-NW- 144
m/z	RELATIVE INTENSITY
15	30
18	40
26	50
27	589
28	99
29	219
32	30
37	20
38	70
39	749
40	60
41	429
42	30
43	219
50	199
51	619
52	159
53	99
55	50
56	40
57	30
58	10
61	10
62	70
63	319
64	90
65	1249
66	80
69	20
73	30
74	60
75	70
76	70
77	649
78	679
79	359
80	30
87	20
89	239
90	99
91	9999
92	5969
93	429
94	10
102	70
103	279
104	219
105	929
106	129
115	149
116	40
117	80
119	109
128	20
133	10
134	2629
135	289
136	10
