Mass Spectrum: Ethylidenecycloheptane
Formula: C9 H16
CAS: 10494-87-8
Molecular weight: 124
Origin: NIST Mass Spectrometry Data Center, 1990.
m/z	RELATIVE INTENSITY
15	99
26	197
27	1578
28	724
29	881
32	72
39	3523
40	778
41	4236
42	730
43	280
44	70
50	307
51	872
52	529
53	2179
54	2371
55	3937
56	304
57	118
62	91
63	285
65	918
66	1132
67	9999
68	2462
69	872
70	1238
77	1043
78	256
79	1892
80	515
81	3729
82	2252
83	389
91	512
92	82
93	608
94	82
95	8686
96	4134
97	298
109	891
110	77
124	3760
125	342
