Mass Spectrum: 2-Butenedioic acid (E)-, dibutyl ester
Formula: C12 H20 O4
CAS: 105-75-9
Molecular weight: 228
Origin: Japan AIST/NIMC Database- Spectrum MS-NW-3971
m/z	RELATIVE INTENSITY
15	99
17	10
18	60
25	10
26	619
27	1919
28	479
29	3019
30	70
31	179
32	99
37	10
38	30
39	709
40	149
41	3759
42	229
43	469
44	80
45	189
50	20
51	40
52	20
53	529
54	1269
55	1639
56	9149
57	5179
58	249
59	30
60	10
63	10
65	20
66	10
67	40
68	40
69	50
70	30
71	569
72	219
73	169
74	10
75	10
77	20
78	10
79	30
80	10
81	739
82	1099
83	80
84	80
85	70
86	40
87	10
89	249
90	10
91	60
92	20
94	20
95	20
96	20
97	239
98	179
99	4559
100	1689
101	149
102	20
103	10
105	20
107	10
108	40
109	259
110	50
111	30
112	70
113	60
114	60
115	30
116	10
117	8259
118	429
119	99
124	30
125	20
126	169
127	909
128	169
129	30
130	20
131	20
136	20
137	20
138	30
139	40
141	10
142	20
143	50
144	20
145	109
146	10
153	80
154	329
155	9999
156	1039
157	159
158	20
161	20
169	10
170	10
171	70
172	50
173	3469
174	349
175	60
183	30
184	10
185	10
186	10
199	90
200	10
201	40
213	20
