Mass Spectrum: sec-Butyl acetate
Formula: C6 H12 O2
CAS: 105-46-4
Molecular weight: 116
Origin: Japan AIST/NIMC Database- Spectrum MS-NW- 58
m/z	RELATIVE INTENSITY
14	40
15	319
18	30
19	10
26	40
27	409
28	149
29	729
30	10
31	90
39	249
40	30
41	1169
42	129
43	9999
44	239
45	279
53	20
54	10
55	279
56	2089
57	689
58	10
59	90
60	30
61	449
72	99
73	529
74	10
83	10
87	1759
88	60
101	309
116	10
