Mass Spectrum: 12-Hydroxystearic acid
Formula: C18 H36 O3
CAS: 106-14-9
Molecular weight: 300
Origin: H. Fales, LC, NHLBI, NIH, Bethesda, MD 20892
m/z	RELATIVE INTENSITY
41	2516
43	3843
44	160
45	711
47	28
49	36
51	33
53	266
55	5810
56	238
57	2289
58	251
60	2226
61	151
62	9
63	6
65	57
67	1156
68	180
69	2885
70	354
71	1139
73	1886
74	150
75	15
77	54
79	250
81	1516
82	563
83	1717
84	700
85	736
87	618
88	48
89	12
91	72
93	191
95	2249
96	1355
97	3549
98	1373
99	278
100	66
101	339
102	42
103	15
105	66
107	150
109	910
110	453
111	1242
112	745
114	2309
115	1033
116	97
117	18
119	111
121	200
122	59
123	228
124	269
125	913
126	147
127	258
129	1057
130	80
131	19
133	116
134	62
135	210
136	15
137	357
138	144
139	182
140	86
141	92
143	723
144	62
145	14
147	47
148	47
149	85
150	83
151	145
152	124
153	145
154	39
155	231
157	228
158	29
159	15
161	362
162	49
163	29
164	25
165	72
166	82
167	43
168	610
169	830
170	77
171	97
172	8
173	77
174	5
175	37
176	14
177	21
179	267
180	101
181	43
182	18
183	35
184	14
186	844
187	253
188	26
189	19
191	12
192	4
193	44
194	40
195	44
197	9999
198	1276
199	147
200	26
203	4
205	4
207	44
208	37
209	20
210	41
211	21
212	10
213	48
215	2834
216	308
217	39
220	106
221	57
222	105
223	31
224	4
225	68
226	14
227	22
228	20
229	4
230	3
235	40
236	34
238	169
239	50
241	53
243	30
245	13
246	48
247	34
248	7
249	4
253	8
254	12
255	15
256	29
257	9
263	25
264	585
265	515
266	84
267	39
268	3
269	5
278	3
279	8
280	38
281	110
282	162
283	747
284	351
285	69
286	8
287	4
295	7
296	3
297	4
298	20
299	9
300	62
301	9
