Mass Spectrum: 2-Propenoic acid, 1,4-butanediyl ester
Formula: C10 H14 O4
CAS: 1070-70-8
Molecular weight: 198
Origin: NIST Mass Spectrometry Data Center, 1994
m/z	RELATIVE INTENSITY
12	10
13	12
15	89
19	10
26	936
27	4299
29	516
30	53
31	252
37	12
39	431
40	94
41	558
42	345
43	360
44	73
45	52
46	2
49	3
50	8
51	20
54	5052
55	9999
56	528
57	81
58	16
60	3
65	3
66	20
67	103
68	235
69	68
70	3
71	1324
72	90
73	255
74	8
78	2
79	15
80	87
81	77
82	32
83	40
84	2
85	450
86	31
87	6
95	36
96	90
97	53
98	133
99	44
100	14
107	5
108	23
109	5
110	7
111	12
113	152
114	15
115	4
123	3
126	379
127	86
128	9
129	2
140	3
143	24
144	7
