Mass Spectrum: 5-Methyl-2-pyrrolidinone
Formula: C5 H9 N O
CAS: 108-27-0
Molecular weight: 99
Origin: Chemical Concepts
m/z	RELATIVE INTENSITY
26	58
27	258
28	951
29	149
30	87
38	40
39	253
40	124
41	2846
42	546
43	318
44	1365
45	41
51	57
52	45
53	82
54	115
55	734
56	1003
57	140
58	132
69	57
70	101
71	48
77	49
81	48
83	47
84	9999
85	311
97	42
98	258
99	1540
100	220
