Mass Spectrum: Butanoic acid, butyl ester
Formula: C8 H16 O2
CAS: 109-21-7
Molecular weight: 144
Origin: Japan AIST/NIMC Database- Spectrum MS-NW- 909
m/z	RELATIVE INTENSITY
14	10
15	109
18	10
26	139
27	1819
28	569
29	2099
30	40
31	169
32	10
37	20
38	50
39	839
40	159
41	3469
42	459
43	5709
44	189
45	119
47	20
50	10
51	20
53	50
54	30
55	749
56	4989
57	1839
58	80
60	1029
61	179
69	40
70	119
71	9999
72	489
73	729
74	30
86	30
87	50
88	479
89	4619
90	209
91	20
101	489
102	20
114	40
115	40
116	139
117	10
