Mass Spectrum: 1-Hexanol
Formula: C6 H14 O
CAS: 111-27-3
Molecular weight: 102
m/z	RELATIVE INTENSITY
14	260
15	1161
16	80
17	240
18	781
19	190
25	40
26	611
27	4984
28	1291
29	4644
30	200
31	5175
32	130
33	40
36	10
37	110
38	240
39	2532
40	480
41	5905
42	5345
43	8317
44	581
45	581
46	30
47	10
49	20
50	90
51	140
52	50
53	310
54	350
55	5695
56	9999
57	951
58	50
59	60
60	10
61	20
62	20
63	20
65	30
66	10
67	120
68	90
69	2392
70	380
71	290
72	40
73	300
74	20
75	10
77	10
79	10
81	20
82	20
83	140
84	961
85	90
86	30
87	10
88	20
102	10
