Mass Spectrum: 9,12-Octadecadienoic acid (Z,Z)-, methyl ester
Formula: C19 H34 O2
CAS: 112-63-0
Molecular weight: 294
Origin: NIST Mass Spectrometry Data Center
m/z	RELATIVE INTENSITY
15	110
26	20
27	470
28	140
29	1131
30	30
31	50
33	10
37	10
39	971
40	200
41	4564
42	621
43	1942
44	80
45	210
50	20
51	140
52	130
53	1191
54	3493
55	6506
56	621
57	631
59	2002
60	60
61	20
62	10
63	30
65	821
66	751
67	9999
68	4234
69	3213
70	310
71	280
72	30
73	310
74	1371
75	130
77	1581
78	480
79	4744
80	2472
81	9569
82	5345
83	2082
84	430
85	470
87	971
88	90
89	50
91	1421
92	290
93	1942
94	1732
95	7206
96	4724
97	1651
98	360
99	240
100	50
101	290
102	30
103	60
104	70
105	400
106	220
107	1291
108	1271
109	3723
110	2803
111	831
112	110
113	130
114	70
115	440
116	50
117	140
118	70
119	330
120	330
121	1461
122	1221
123	1932
124	1471
125	450
126	90
127	160
128	90
129	320
130	40
131	310
132	110
133	400
134	180
135	1451
136	1471
137	1041
138	761
139	260
140	170
141	210
142	40
143	170
144	30
145	210
146	120
147	240
148	90
149	1121
150	1601
151	711
152	420
153	200
154	180
155	90
156	10
157	80
158	10
159	190
160	60
161	110
162	40
163	611
164	1031
165	370
166	210
167	150
168	140
169	40
170	10
171	50
172	10
173	240
174	60
175	60
176	20
177	320
178	611
179	220
180	90
181	130
182	90
183	20
185	20
187	150
188	30
189	30
191	170
192	170
193	80
194	30
195	90
196	90
197	20
199	10
201	50
202	10
203	10
205	110
206	90
207	30
208	20
209	70
210	70
211	10
213	10
215	20
216	10
218	50
219	70
220	380
221	80
223	50
224	50
225	10
227	10
233	40
234	80
235	20
237	40
238	30
239	10
244	10
245	40
246	10
247	10
251	30
252	20
262	781
263	1231
264	230
265	50
266	10
279	10
294	1892
295	400
296	50
