Mass Spectrum: Cyclohexane, 1-methyl-4-(1-methylethylidene)-
Formula: C10 H18
CAS: 1124-27-2
Molecular weight: 138
Origin: CARL DJERASSI DEPT OF CHEM STANFORD UNIV STANFORD CALIF 94305
m/z	RELATIVE INTENSITY
41	2300
42	900
43	2000
44	300
50	300
51	1200
52	700
53	3100
54	1200
55	5100
56	700
57	500
63	200
65	900
66	400
67	6300
68	2200
69	2000
70	300
77	1200
78	300
79	1800
80	400
81	8600
82	2500
83	700
84	100
91	600
92	100
93	600
94	900
95	9999
96	2000
97	100
105	100
107	100
109	600
110	100
121	100
123	2200
124	200
137	100
138	2800
139	200
