Mass Spectrum: Estradiol dipropionate
Formula: C24 H32 O4
CAS: 113-38-2
Molecular weight: 384
Origin: NIST Mass Spectrometry Data Center, 1994
m/z	RELATIVE INTENSITY
26	21
27	151
28	87
29	956
30	26
32	5
39	29
41	101
42	17
43	71
53	35
55	213
57	2048
58	65
65	28
67	83
69	36
71	19
77	97
78	33
79	120
80	17
81	113
83	44
91	160
92	18
93	111
94	42
95	92
97	22
103	42
104	29
105	129
106	21
107	212
108	53
109	43
115	162
116	59
117	73
119	32
120	45
121	71
127	83
128	86
129	82
130	32
131	161
132	70
133	466
134	113
135	32
141	97
142	23
143	36
144	153
145	257
146	635
147	258
148	36
152	20
153	30
155	28
157	241
158	318
159	588
160	394
161	68
165	25
167	17
169	19
170	87
171	124
172	778
173	193
174	29
181	22
182	12
183	88
184	58
185	93
186	53
187	21
195	17
196	25
197	197
198	71
199	77
200	34
209	19
211	225
212	89
213	324
214	85
215	50
225	633
226	496
227	107
228	42
237	36
239	137
240	31
243	22
252	23
253	209
254	415
255	201
256	28
270	15
271	105
272	35
311	32
312	13
313	15
326	37
328	9999
329	2221
330	304
331	33
384	615
385	158
386	27
