Mass Spectrum: 2,4-Pentanedione, 3-(phenylmethyl)-
Formula: C12 H14 O2
CAS: 1134-87-8
Molecular weight: 190
Origin: Chemical Concepts
m/z	RELATIVE INTENSITY
25	11
26	70
27	287
29	126
31	20
36	14
37	12
38	46
39	480
40	62
41	270
42	107
43	9999
44	249
45	84
49	11
50	187
51	575
52	157
53	112
54	33
55	536
56	38
57	93
58	17
59	13
61	13
62	47
63	218
64	75
65	539
66	60
67	49
68	25
69	145
70	51
71	92
72	10
73	17
74	51
75	78
76	92
77	663
78	549
79	195
80	42
81	49
82	22
83	79
84	21
85	24
86	19
87	23
88	13
89	118
90	52
91	2149
92	238
93	45
94	32
95	49
96	17
97	573
98	42
99	107
100	10
101	30
102	122
103	366
104	257
105	1441
106	164
107	50
108	32
109	27
110	10
111	21
112	15
113	106
114	59
115	236
116	46
117	66
118	22
119	58
120	20
121	25
122	14
123	21
125	25
126	42
127	183
128	322
129	1358
130	344
131	210
132	61
133	304
134	37
135	18
136	17
137	10
141	23
142	11
143	19
144	20
145	64
146	28
147	6187
148	846
149	71
150	13
152	11
153	11
154	10
155	17
156	45
157	123
158	21
159	13
170	11
171	25
172	296
173	50
174	12
175	115
176	19
189	12
190	355
191	54
