Mass Spectrum: N-Phenyliminodiacetic acid
Formula: C10 H11 N O4
CAS: 1137-73-1
Molecular weight: 209
Origin: NIST Mass Spectrometry Data Center, 1994
m/z	RELATIVE INTENSITY
12	59
13	51
14	311
15	630
16	62
18	24
26	126
27	447
28	644
29	116
30	46
32	25
37	134
38	322
39	768
40	243
41	849
42	1771
43	66
44	302
45	35
46	45
47	29
49	66
50	1093
51	2399
52	414
53	70
54	27
59	237
61	59
62	143
63	426
64	241
65	824
66	81
67	14
73	58
74	316
75	205
76	268
77	2539
78	435
79	83
89	157
91	9999
92	840
93	29
104	1238
105	646
106	153
107	52
116	19
117	124
118	495
119	2769
120	257
163	202
164	25
191	2193
192	238
193	28
