Mass Spectrum: .beta.-Humulene
Formula: C15 H24
CAS: 116-04-1
Molecular weight: 204
Origin: Chemical Concepts
m/z	RELATIVE INTENSITY
26	38
27	2067
28	126
29	2086
30	44
38	30
39	1918
40	51
41	5274
42	361
43	1153
50	67
51	342
52	248
53	1929
54	341
55	2272
56	180
57	290
58	25
63	108
64	51
65	1019
66	414
67	4517
68	539
69	3125
70	191
71	60
74	33
76	23
77	2788
78	718
79	5588
80	1838
81	6075
82	3424
83	613
84	68
85	38
88	32
89	56
91	5431
92	1808
93	9684
94	3057
95	5963
96	862
97	260
98	32
102	57
103	313
104	206
105	5798
106	1962
107	9999
108	3432
109	2976
110	981
111	219
115	376
116	149
117	588
118	218
119	6076
120	1839
121	3800
122	3096
123	1357
124	189
125	33
127	61
128	123
129	151
130	78
131	370
132	141
133	4541
134	2587
135	4054
136	950
137	134
141	52
142	28
143	30
144	38
145	255
146	109
147	2646
148	3979
149	1020
150	166
159	99
160	92
161	3792
162	1006
163	338
164	51
173	22
174	29
175	1163
176	1158
177	158
187	26
189	3425
190	481
191	87
202	32
203	23
204	4481
205	784
206	96
