Mass Spectrum: Pregna-5,16-dien-20-one, 3-hydroxy-, (3.beta.)-
Formula: C21 H30 O2
CAS: 1162-53-4
Molecular weight: 314
Origin: DENNIS H SMITH DEPT OF CHEM STANFORD UNIV STANFORD CALIF 9430
m/z	RELATIVE INTENSITY
40	56
41	1679
43	9999
45	96
51	76
53	564
55	1247
56	63
57	632
65	379
66	101
67	799
68	91
69	402
71	177
77	1057
78	243
79	1573
81	1006
83	248
85	121
91	2337
92	468
93	1522
94	296
95	645
96	71
97	250
103	202
104	137
105	1957
106	369
107	1821
108	326
109	478
111	192
115	432
116	200
117	794
118	240
119	1158
120	728
121	1209
122	468
123	432
124	174
125	187
127	71
128	316
129	536
130	190
131	1214
132	207
133	1123
134	240
135	1611
136	387
137	506
138	86
141	296
142	149
143	756
144	225
145	2000
146	324
147	918
148	205
149	354
150	142
151	101
153	63
155	243
156	63
157	675
158	202
159	1712
160	496
161	1019
162	109
163	273
165	76
167	73
169	230
171	412
172	106
173	594
174	180
175	645
176	129
177	142
178	104
181	111
183	238
185	420
186	157
187	352
188	253
189	187
190	273
191	99
195	94
196	58
197	207
198	73
199	157
201	116
202	359
203	1871
204	316
209	61
211	228
212	56
213	164
215	86
225	56
227	73
228	104
229	1178
230	235
237	147
238	89
239	316
241	111
242	76
253	569
254	263
255	195
256	58
257	164
263	174
267	61
269	124
270	83
271	678
272	106
281	1629
282	346
296	1259
297	319
299	1811
300	334
312	154
314	4069
315	946
