Mass Spectrum: 2,2,6,6,-Tetramethylcyclohexanone
Formula: C10 H18 O
CAS: 1195-93-3
Molecular weight: 154
Origin: NIST Mass Spectrometry Data Center, 1990.
m/z	RELATIVE INTENSITY
15	131
27	1384
28	558
29	1225
32	46
39	3160
40	917
41	7858
42	2103
43	1179
50	150
51	316
52	197
53	1242
54	150
55	7858
56	9999
57	2138
63	103
65	260
67	1599
69	7242
70	4632
71	621
72	4645
73	202
77	218
79	231
82	8733
83	8709
84	814
85	105
91	112
95	97
97	127
98	252
111	427
136	119
154	2455
155	275
