Mass Spectrum: Benzophenone-4,4'-dicarboxylic acid dimethyl ester
Formula: C17 H14 O5
CAS: 1233-73-4
Molecular weight: 298
Origin: J. Little, Eastman chemical company.
m/z	RELATIVE INTENSITY
27	180
29	270
39	210
41	380
43	520
45	350
50	250
51	190
55	410
57	370
59	230
60	210
69	530
73	230
75	480
76	1261
77	681
81	220
90	210
91	360
92	340
103	1081
104	1081
105	320
107	190
118	1121
119	530
120	591
135	1341
136	200
151	260
152	390
163	9999
164	1121
165	220
179	561
239	771
240	170
267	2222
268	470
298	3383
299	731
300	130
