Mass Spectrum: Methyl dehydroabietate
Formula: C21 H30 O2
CAS: 1235-74-1
Molecular weight: 314
m/z	RELATIVE INTENSITY
16	208
17	21
18	187
27	125
28	42
29	167
39	104
41	604
42	62
43	1000
44	125
45	21
53	125
55	396
56	62
57	62
58	167
59	458
65	62
67	167
69	229
71	42
73	83
77	146
78	42
79	125
81	187
82	21
83	104
84	21
85	83
91	417
92	62
93	125
95	83
96	21
97	21
98	21
99	21
101	125
103	42
105	208
107	83
109	62
113	146
115	437
116	146
117	562
118	83
119	104
121	333
122	42
123	104
127	167
128	583
129	750
130	167
131	562
132	83
133	250
139	396
141	833
142	458
143	729
144	125
145	187
146	250
147	146
152	146
153	312
154	250
155	708
156	229
157	458
158	83
159	417
160	62
161	21
163	21
165	229
166	125
167	292
168	167
169	458
170	146
171	375
172	83
173	667
174	104
178	104
179	125
180	62
181	396
182	125
183	417
184	146
185	458
186	42
191	146
193	42
195	187
196	146
197	812
198	167
199	333
200	42
207	42
209	125
210	42
211	250
212	125
213	83
214	21
223	146
224	83
225	271
226	42
237	83
238	104
239	9999
240	2208
241	250
242	21
253	83
254	42
255	333
256	104
267	62
271	21
299	1875
300	417
301	42
313	21
314	1396
315	354
316	42
