Mass Spectrum: Androstan-17-ol, acetate, (5.alpha.,17.beta.)-
Formula: C21 H34 O2
CAS: 1236-49-3
Molecular weight: 318
Origin: Chemical Concepts
m/z	RELATIVE INTENSITY
26	115
27	580
28	711
29	711
30	71
31	182
34	67
35	101
36	432
38	131
39	941
40	357
41	4049
42	543
43	6624
44	1581
45	361
46	40
47	128
48	74
49	121
50	236
51	469
52	202
53	1716
54	816
55	5229
56	725
57	1035
58	138
59	74
60	155
61	179
62	91
63	185
64	411
65	870
66	550
67	5974
68	1831
69	2495
70	580
71	657
72	111
73	125
74	118
75	67
76	169
77	2501
78	769
79	5114
80	1305
81	7208
82	1504
83	2377
84	529
85	303
86	162
87	88
88	61
89	108
90	138
91	6341
92	1541
93	5155
94	6318
95	7417
96	1032
97	1284
98	330
99	158
100	115
101	101
102	78
103	415
104	475
105	3975
106	1406
107	4679
108	4484
109	6594
110	1477
111	617
112	209
113	158
114	101
115	334
116	260
117	917
118	496
119	2107
120	1463
121	4308
122	3304
123	2326
124	297
125	236
126	88
127	81
128	202
129	249
130	212
131	634
132	334
133	3159
134	1281
135	3503
136	745
137	698
138	121
139	148
140	91
141	435
142	125
143	105
144	78
145	1035
146	681
147	3796
148	9999
149	8863
150	2795
151	1008
152	196
153	111
154	148
155	196
156	84
157	98
158	57
159	732
160	361
161	2670
162	2734
163	1423
164	351
165	256
166	196
167	233
168	78
169	98
170	47
171	138
172	57
173	637
174	448
175	2023
176	934
177	317
178	148
179	155
180	209
181	105
182	44
183	74
184	105
185	145
186	57
187	630
188	1042
189	1493
190	384
191	222
192	354
193	121
194	138
195	155
196	44
197	378
198	74
199	105
200	30
201	1719
202	823
203	1042
204	405
205	74
206	81
207	101
208	1052
209	209
210	67
211	20
213	84
214	54
215	920
216	570
217	5505
218	1264
219	647
220	182
221	94
222	61
223	54
224	44
225	47
227	67
228	57
229	219
230	930
231	249
232	624
233	179
234	71
235	71
236	51
237	40
239	78
240	54
241	84
242	64
243	7080
244	1895
245	212
246	44
247	64
248	172
255	105
256	67
257	378
258	6631
259	1480
260	216
261	337
262	131
263	57
300	587
301	128
302	57
303	1389
304	327
305	40
306	44
317	101
318	1062
319	266
320	64
