Mass Spectrum: 9,19-Cyclolanost-24-en-3-ol, acetate, (3.beta.)-
Formula: C32 H52 O2
CAS: 1259-10-5
Molecular weight: 468
Origin: Humboldt-Universitat zu Berlin, Department of Chemistry, Analytical Group
m/z	RELATIVE INTENSITY
14	69
15	268
16	153
17	329
18	780
26	77
27	505
28	497
29	1239
30	130
31	107
32	161
36	153
38	99
39	513
40	161
41	5722
42	558
43	9999
44	742
45	459
46	459
50	54
51	99
53	574
54	184
55	4850
56	658
57	1760
58	138
59	191
60	291
61	153
63	77
64	122
65	252
66	115
67	2364
68	467
69	7520
70	711
71	1063
72	145
73	314
74	61
77	650
78	161
79	1859
80	329
81	3160
82	1017
83	1339
84	252
85	451
86	84
87	99
91	1874
92	467
93	2601
94	834
95	4567
96	711
97	910
98	191
99	245
100	107
101	77
103	153
104	168
105	2387
106	650
107	3114
108	757
109	3244
110	505
111	597
112	168
113	207
114	61
115	237
116	130
117	620
118	344
119	2257
120	1056
121	2785
122	1362
123	1813
124	306
125	268
126	92
127	199
128	176
129	436
130	176
131	964
132	520
133	2004
134	1293
135	2219
136	635
137	811
138	207
139	107
140	54
141	153
142	92
143	321
144	176
145	1201
146	383
147	1966
148	987
149	1614
150	428
151	268
152	77
153	77
154	54
155	122
156	69
157	329
158	138
159	1040
160	490
161	1224
162	444
163	803
164	191
165	145
166	46
167	138
168	46
169	84
170	54
171	291
172	168
173	1324
174	383
175	1400
176	344
177	589
178	130
179	77
180	38
181	38
183	84
184	46
185	260
186	130
187	704
188	321
189	574
190	199
191	275
192	92
193	61
195	46
197	77
198	38
199	176
200	138
201	734
202	681
203	880
204	398
205	375
206	214
207	84
209	31
211	54
212	31
213	184
214	107
215	291
216	138
217	283
218	168
219	107
220	61
221	38
225	61
227	176
228	69
229	191
230	61
231	291
232	153
233	69
234	23
235	31
239	54
240	23
241	115
242	54
243	168
244	92
245	69
246	38
247	31
253	46
254	23
255	122
256	54
257	130
258	54
259	69
260	38
261	38
262	31
267	31
269	69
270	54
271	260
272	84
273	46
274	38
275	23
279	23
281	46
282	23
283	84
284	46
285	69
286	505
287	130
288	38
289	23
295	145
296	54
297	214
298	69
299	46
300	15
301	38
302	31
303	15
309	38
310	15
311	99
312	38
313	23
315	31
323	54
324	54
325	77
326	77
327	31
328	15
329	15
337	23
338	23
339	383
340	138
341	38
342	23
343	15
351	15
352	15
353	15
354	99
355	84
356	31
357	61
358	23
365	490
366	153
367	31
368	15
369	15
379	15
380	8
381	15
382	15
383	23
384	54
385	31
386	15
393	650
394	214
395	77
396	15
397	8
399	46
400	23
406	15
408	987
409	344
410	107
411	31
412	15
414	23
424	15
425	23
426	15
453	138
454	54
455	23
468	260
469	99
470	23
