Mass Spectrum: 2-Propanol, 1-chloro-
Formula: C3 H7 Cl O
CAS: 127-00-4
Molecular weight: 94
Origin: NIST Mass Spectrometry Data Center, 1990.
m/z	RELATIVE INTENSITY
14	179
15	661
16	44
19	512
25	74
26	343
27	1404
28	344
29	1867
30	99
31	641
32	73
35	74
36	101
37	234
38	308
39	765
40	190
41	918
42	627
43	2708
44	73
45	9999
46	239
47	93
48	129
49	553
50	102
51	189
57	169
58	142
79	1087
81	372
