Mass Spectrum: .beta.-Pinene
Formula: C10 H16
CAS: 127-91-3
Molecular weight: 136
Origin: NIST Mass Spectrometry Data Center, 1990.
m/z	RELATIVE INTENSITY
14	30
15	196
26	184
27	2147
28	322
29	790
30	21
37	50
38	295
39	3180
40	665
41	6092
42	282
43	557
44	10
45	6
50	289
51	820
52	432
53	1343
54	193
55	730
56	66
57	37
58	46
61	21
62	92
63	297
64	94
65	852
66	305
67	1336
68	440
69	3506
70	197
74	37
75	31
77	2755
78	577
79	2740
80	1252
81	299
82	142
83	8
86	14
87	12
89	73
91	3087
92	1526
93	9999
94	1276
95	208
96	18
101	5
102	27
103	106
104	51
105	308
106	75
107	483
108	173
109	21
115	73
116	20
117	63
119	103
121	1133
122	104
123	6
128	7
131	7
132	22
133	7
134	18
136	799
137	94
