Mass Spectrum: Methanone, (2,4-dihydroxyphenyl)phenyl-
Formula: C13 H10 O3
CAS: 131-56-6
Molecular weight: 214
Origin: Japan AIST/NIMC Database- Spectrum MS-NW-4217
m/z	RELATIVE INTENSITY
14	10
15	20
16	10
18	20
26	50
27	499
28	109
29	109
31	10
36	10
37	70
38	159
39	459
40	30
41	40
42	50
43	50
44	10
45	10
49	30
50	449
51	1439
52	409
53	599
54	50
55	199
56	10
57	20
58	10
60	10
61	50
62	139
63	349
64	119
65	119
66	70
67	50
68	20
69	829
70	90
71	30
73	30
74	149
75	139
76	199
77	3469
78	419
79	129
80	199
81	1189
82	70
83	10
84	139
85	10
86	40
87	50
88	30
89	80
90	30
91	50
92	90
93	299
94	10
95	80
96	10
97	20
98	80
99	10
100	10
101	30
102	70
103	50
104	50
105	2179
106	169
107	329
108	509
109	349
110	40
111	10
113	40
114	50
115	209
116	50
117	20
118	10
120	10
121	30
122	10
126	30
127	169
128	309
129	179
130	20
131	20
135	10
136	589
137	9999
138	779
139	269
140	50
141	40
142	10
143	10
144	10
145	10
149	10
151	10
152	10
155	20
156	10
157	159
158	30
167	70
168	129
169	30
171	10
184	60
185	199
186	60
187	10
195	20
196	99
197	359
198	50
211	10
212	70
213	9329
214	8709
215	1199
216	129
217	10
