Mass Spectrum: 2-Cyclohexenone,3-bromo,5,5-dimethyl-
Formula: C8 H11 Br O
CAS: 13271-49-3
Molecular weight: 202
Origin: Chemical Concepts
m/z	RELATIVE INTENSITY
26	91
27	785
28	158
29	523
30	25
31	25
35	27
36	18
37	150
38	592
39	3532
40	410
41	1688
42	230
43	231
44	26
45	41
46	37
47	55
48	24
49	55
50	354
51	686
52	340
53	966
54	112
55	704
56	792
57	75
58	9
59	18
60	9
61	54
62	157
63	322
64	82
65	494
66	296
67	9999
68	383
69	59
70	91
71	10
72	7
73	29
74	73
75	55
76	43
77	792
78	662
79	1052
80	803
81	347
82	44
83	245
84	27
85	131
86	17
87	26
88	6
89	18
90	22
91	170
92	37
93	103
94	73
95	657
96	58
97	13
101	15
103	12
104	35
105	46
106	61
107	90
108	262
109	28
110	6
111	5
112	11
116	56
118	21
119	92
120	13
121	52
122	17
123	999
124	100
131	50
132	10
133	55
134	11
135	20
140	19
141	7
142	3
143	15
144	10
145	59
146	7676
147	400
148	7643
149	404
150	32
151	10
155	17
156	4
157	6
158	12
159	335
160	52
161	274
162	48
163	5
169	6
170	54
171	11
172	68
173	34
174	398
175	59
176	385
177	29
187	581
188	47
189	575
190	41
202	3079
203	336
204	3043
205	332
206	18
