Mass Spectrum: 2-Tetrazene, 1,1,4,4-tetraethyl-
Formula: C8 H20 N4
CAS: 13304-29-5
Molecular weight: 172
Origin: ATLAS OF MASS SPECTRA OF ORGANIC COMPOUNDS, V. A. KOPTYUG, ED.
m/z	RELATIVE INTENSITY
27	1140
28	1020
29	5370
30	520
31	190
41	160
42	1080
43	450
44	9999
45	270
56	540
57	370
58	630
59	450
70	100
71	110
72	710
73	80
87	330
100	250
157	20
172	4220
173	430
