Mass Spectrum: 2-Methyl-4-nitrophenyl isothiocyanate
Formula: C8 H6 N2 O2 S
CAS: 135805-96-8
Molecular weight: 194
Origin: NIST Mass Spectrometry Data Center, 1994
m/z	RELATIVE INTENSITY
15	53
16	42
18	49
26	184
27	378
28	392
29	42
30	1268
32	214
37	386
38	709
39	2334
40	276
41	52
43	48
44	304
45	1849
46	289
47	99
48	32
49	138
50	1231
51	1946
52	548
53	171
54	48
57	89
58	187
59	125
60	32
61	449
62	1234
63	3571
64	1150
65	373
66	64
68	35
69	451
70	643
71	169
72	298
73	152
74	479
75	638
76	672
77	3467
78	2083
79	135
80	58
81	79
82	148
83	257
84	280
85	167
86	335
87	374
88	324
89	2123
90	739
91	110
92	301
93	111
94	143
95	198
96	413
97	76
98	49
99	86
100	48
101	48
102	326
103	512
104	3801
105	346
106	143
107	119
108	231
109	570
110	72
111	50
114	220
115	126
116	169
119	84
121	2680
122	487
123	142
130	34
131	32
132	62
133	202
134	68
135	32
136	1452
137	142
138	88
146	268
147	309
148	2334
149	244
150	129
162	97
164	2235
165	268
166	132
177	75
178	169
194	9999
195	1004
196	567
197	57
