Mass Spectrum: Furan, 2-methyl-5-(methylthio)-
Formula: C6 H8 O S
CAS: 13678-59-6
Molecular weight: 128
m/z	RELATIVE INTENSITY
27	731
39	280
41	310
43	1111
45	1712
47	180
50	340
51	571
52	290
53	601
64	130
65	160
69	701
70	571
71	180
81	180
85	4124
86	180
87	130
98	160
113	7257
114	390
115	290
128	9999
129	761
130	480
