Mass Spectrum: 2-Butanone, 4-(5-methyl-2-furanyl)-
Formula: C9 H12 O2
CAS: 13679-56-6
Molecular weight: 152
Origin: Chemical Concepts
m/z	RELATIVE INTENSITY
27	1439
28	319
29	189
31	30
37	50
39	1219
40	229
41	1049
43	8280
44	159
45	40
50	399
51	689
52	419
53	639
54	109
55	599
56	10
57	20
58	20
62	40
63	109
64	30
65	529
66	309
67	769
68	40
69	30
71	10
77	309
78	30
79	499
80	70
81	779
82	869
83	40
91	169
92	20
93	30
94	199
95	9999
96	619
97	30
105	10
107	269
108	259
109	1829
110	209
111	10
119	10
135	20
137	259
138	10
151	20
152	2889
153	259
