Mass Spectrum: Pyrazine, ethyl-
Formula: C6 H8 N2
CAS: 13925-00-3
Molecular weight: 108
Origin: Japan AIST/NIMC Database- Spectrum MS-NW-1343
m/z	RELATIVE INTENSITY
14	20
15	99
25	50
26	1549
27	949
28	429
29	189
30	10
36	10
37	159
38	349
39	1439
40	359
41	499
42	229
43	30
44	20
46	30
49	50
50	219
51	449
52	1179
53	1769
54	659
55	429
56	859
57	60
62	10
63	30
64	70
65	60
66	329
67	80
68	30
69	10
75	20
76	20
77	20
78	30
79	419
80	2349
81	969
82	80
92	10
93	209
94	40
105	20
106	80
107	9999
108	7259
109	509
110	10
