Mass Spectrum: Hexanedioic acid, bis[2-(2-butoxyethoxy)ethyl] ester
Formula: C22 H42 O8
CAS: 141-17-3
Molecular weight: 434
Origin: H. Fales, LC, NHLBI, NIH, Bethesda, MD 20892
m/z	RELATIVE INTENSITY
41	3606
42	690
43	1593
44	811
45	5038
46	104
47	33
49	82
50	10
51	51
52	11
53	152
54	179
55	3733
56	4269
57	9999
58	813
59	1250
60	301
61	85
62	20
63	47
64	62
65	8
67	99
68	170
69	369
70	222
71	788
72	3031
73	1830
75	929
76	8
77	54
78	34
79	9
81	100
82	259
83	1301
84	870
85	3528
86	138
87	2159
88	530
89	2380
90	112
91	23
93	11
94	9
95	23
96	71
97	88
98	340
99	2434
100	4590
101	5487
102	466
103	246
104	61
105	22
107	186
108	23
109	50
110	97
111	2583
112	442
113	575
114	166
115	368
116	71
117	199
119	101
121	18
123	28
124	13
125	63
126	98
127	202
128	375
129	3245
131	899
132	98
133	42
135	25
136	38
137	40
138	87
139	115
140	29
142	260
143	284
144	1267
145	2302
146	217
147	102
149	141
150	10
151	9
152	24
153	20
154	64
155	1813
156	302
157	733
158	167
159	652
160	441
161	1000
163	1623
164	144
165	21
166	12
167	15
168	8
169	18
171	113
172	227
173	6198
174	528
175	149
176	13
177	10
182	31
183	19
184	23
185	370
186	245
187	243
188	46
189	103
191	88
193	9
197	12
198	14
199	93
200	167
201	877
202	96
203	71
204	92
205	33
211	19
213	18
215	208
216	124
217	4429
218	528
219	85
220	9
227	18
228	37
229	431
230	72
231	366
232	79
233	16
235	18
242	26
243	63
244	159
245	248
246	111
247	31
248	27
249	20
255	648
256	106
257	19
259	381
260	15
261	2288
262	313
263	54
270	16
271	91
272	94
273	1070
274	175
275	85
276	15
287	18
288	109
289	185
290	56
291	329
292	54
303	12
304	148
305	65
306	8
307	21
315	19
316	20
317	1165
318	213
319	57
331	9
332	16
333	86
334	15
335	15
345	8
347	70
348	20
349	11
360	41
361	14
362	21
363	9
377	8
379	81
380	12
391	60
392	12
405	10
432	60
433	58
434	573
435	144
436	19
