Mass Spectrum: 1-Nitro-2,4,6-trimethoxybenzene
Formula: C9 H11 N O5
CAS: 14227-18-0
Molecular weight: 213
Origin: NIST Mass Spectrometry Data Center
m/z	RELATIVE INTENSITY
15	3813
16	60
17	90
18	90
26	290
27	911
28	651
29	1491
30	3283
31	320
32	30
37	480
38	1401
39	2112
40	280
41	871
42	631
43	861
44	160
45	210
46	520
47	50
49	350
50	2282
51	1842
52	931
53	3383
54	881
55	601
56	761
57	230
59	4094
60	140
61	561
62	1541
63	2482
64	861
65	1391
66	2212
67	961
69	5955
70	440
71	70
73	80
74	220
75	360
77	2783
78	1091
79	2002
80	811
81	1501
82	661
83	430
84	70
85	120
90	120
91	360
92	1061
93	1141
94	1101
95	1381
96	1431
97	661
98	230
99	70
100	70
105	140
106	490
107	1742
108	911
109	3063
110	1321
111	510
112	260
120	140
122	3373
123	1922
124	931
125	3733
126	1451
127	130
135	390
137	3813
138	971
139	360
140	3013
141	270
150	70
151	180
152	1181
153	230
155	4144
156	410
166	3493
167	350
168	240
183	5045
184	701
185	110
196	310
197	140
213	9999
214	1141
215	140
