Mass Spectrum: 1,2-Dimethyl cyclopropene
Formula: C5 H8
CAS: 14309-32-1
Molecular weight: 68
Origin: Chemical Concepts
m/z	RELATIVE INTENSITY
25	241
26	1724
27	8996
28	539
29	390
31	423
36	107
37	1097
38	1860
39	9999
40	3468
41	8568
42	1396
43	79
48	57
49	497
50	2348
51	2956
52	1219
53	7263
54	379
55	30
60	76
61	361
62	530
63	534
64	85
65	1354
66	845
67	9653
68	6752
69	422
70	16
