Mass Spectrum: Cyclobutanone, 2,2,3-trimethyl-
Formula: C7 H12 O
CAS: 1449-49-6
Molecular weight: 112
m/z	RELATIVE INTENSITY
41	7006
42	9308
43	300
55	8808
56	701
70	9999
71	601
84	300
97	100
112	500
