Mass Spectrum: 3-Methylbenzothiophene
Formula: C9 H8 S
CAS: 1455-18-1
Molecular weight: 148
Origin: TNO Volatile Compounds in Food - Chemical Concepts
m/z	RELATIVE INTENSITY
37	42
38	47
39	265
45	518
50	176
51	313
52	24
54	22
60	35
61	33
62	98
63	295
65	40
69	519
70	39
71	81
72	139
73	502
74	562
75	146
76	82
77	423
78	39
82	38
87	28
89	136
93	45
100	19
101	37
102	206
103	404
104	21
115	471
121	104
145	127
147	9999
148	9032
149	737
150	219
