Mass Spectrum: cis-2-Methoxycinnamic acid
Formula: C10 H10 O3
CAS: 14737-91-8
Molecular weight: 178
Origin: Japan AIST/NIMC Database- Spectrum MS-NW-4227
m/z	RELATIVE INTENSITY
14	40
15	319
16	20
17	60
18	209
25	10
26	119
27	409
28	70
29	199
30	20
31	60
32	80
37	149
38	409
39	1289
40	159
41	269
42	40
43	189
44	199
45	489
46	10
49	80
50	769
51	1419
52	359
53	309
54	40
55	309
56	40
57	70
58	10
59	50
60	40
61	179
62	599
63	1669
64	589
65	1379
66	159
67	50
68	40
69	90
70	10
71	30
72	10
73	70
74	419
75	639
76	389
77	2609
78	1209
79	1139
80	99
81	80
82	20
84	30
85	209
86	109
87	139
88	99
89	1999
90	1289
91	7129
92	669
93	90
94	809
95	139
96	20
97	20
98	70
99	20
100	10
101	339
102	559
103	2089
104	509
105	1559
106	229
107	609
108	119
109	129
110	10
114	20
115	279
116	90
117	139
118	4369
119	2709
120	499
121	249
122	40
123	40
124	30
128	30
129	139
130	50
131	2619
132	1219
133	629
134	199
135	439
136	50
137	60
138	10
142	30
143	10
144	10
145	119
146	1209
147	9999
148	969
149	129
150	159
151	50
152	10
159	30
160	159
161	869
162	179
163	329
164	40
176	10
177	379
178	8499
179	1019
180	109
181	10
