Mass Spectrum: Benzene, 2,4-dimethyl-1-(1-methylpropyl)-
Formula: C12 H18
CAS: 1483-60-9
Molecular weight: 162
m/z	RELATIVE INTENSITY
26	110
27	1071
28	180
29	831
30	20
37	10
38	60
39	701
40	90
41	540
42	40
43	20
44	10
49	10
50	120
51	390
52	120
53	260
54	20
55	180
56	10
57	40
58	20
59	10
61	10
62	60
63	240
64	120
65	310
66	50
67	40
68	10
69	10
70	20
71	30
72	10
73	10
74	30
75	70
76	50
77	561
78	190
79	250
80	20
81	10
82	20
83	20
84	20
85	10
86	10
87	20
88	10
89	90
90	40
91	971
92	110
93	90
94	10
95	10
96	10
97	10
98	10
99	10
100	10
101	30
102	100
103	250
104	120
105	751
106	100
107	130
108	10
109	10
110	10
111	10
112	20
113	30
114	50
115	641
116	330
117	681
118	370
119	841
120	90
121	10
125	10
126	20
127	90
128	230
129	210
130	140
131	400
132	200
133	9999
134	1181
135	80
136	10
139	10
140	10
141	20
142	10
143	10
144	10
145	40
146	20
147	270
148	40
149	10
161	20
162	1661
163	240
164	20
