Mass Spectrum: Cyclopropanecarboxaldehyde
Formula: C4 H6 O
CAS: 1489-69-6
Molecular weight: 70
Origin: Chemical Concepts
m/z	RELATIVE INTENSITY
25	273
26	1447
27	2979
28	392
29	3512
30	138
31	249
36	165
37	994
38	1565
39	9437
40	1882
41	9999
42	8642
43	546
44	407
49	160
50	331
51	216
52	189
53	212
54	111
55	345
56	114
67	13
69	4372
70	4444
71	235
