Mass Spectrum: 2-(t-Butylphenyl)-5-(4-biphenylyl)-1,3,4-oxadiazole
Formula: C24 H22 N2 O
CAS: 15082-28-7
Molecular weight: 354
Origin: Japan AIST/NIMC Database- Spectrum MS-NW-7062
m/z	RELATIVE INTENSITY
15	10
27	60
28	20
29	90
38	20
39	249
40	20
41	479
42	20
43	10
44	20
45	10
50	70
51	159
52	50
53	40
55	90
56	30
57	439
58	20
61	10
62	50
63	189
64	50
65	99
66	10
67	10
69	10
70	10
71	10
74	50
75	119
76	189
77	409
78	109
79	40
81	10
85	10
86	20
87	50
88	60
89	159
90	139
91	369
92	50
93	30
98	10
99	20
100	30
101	60
102	209
103	149
104	119
105	199
106	20
107	10
111	10
112	10
113	50
114	40
115	439
116	399
117	249
118	479
119	219
120	40
124	10
125	20
126	80
127	189
128	139
129	99
130	40
131	60
132	139
133	60
134	10
137	10
138	20
139	99
140	90
141	30
142	20
143	20
144	469
145	269
146	349
147	40
149	20
150	80
151	399
152	1389
153	1119
154	139
155	1089
156	279
157	10
158	10
159	139
160	40
161	1599
162	209
163	90
164	80
165	199
166	109
167	50
168	10
169	929
170	249
171	10
175	10
176	30
177	169
178	219
179	869
180	199
181	2439
182	359
183	30
186	10
189	20
190	10
191	50
192	10
194	20
195	20
202	20
203	20
204	10
205	20
206	10
207	10
214	20
215	40
216	10
217	10
226	20
227	10
228	30
229	10
239	119
240	80
241	489
242	319
243	99
244	20
251	10
252	70
253	149
254	159
255	259
256	70
257	20
263	10
265	50
266	40
267	159
268	279
269	90
270	30
271	10
278	10
279	10
281	20
282	20
283	899
284	229
285	30
294	10
295	10
296	119
297	60
298	189
299	50
300	10
310	30
311	169
312	50
313	30
314	10
319	10
324	20
325	50
326	30
327	20
328	10
329	10
330	10
331	10
332	10
333	10
334	20
335	10
336	10
337	20
338	40
339	5639
340	1489
341	219
342	30
350	10
351	10
352	20
353	80
354	9999
355	2699
356	399
357	40
