Mass Spectrum: 1H-1,2,4-Triazole, 3-chloro-5-methyl-
Formula: C3 H4 Cl N3
CAS: 15285-15-1
Molecular weight: 117
Origin: V.A.Korolev, Moscow, Russia
m/z	RELATIVE INTENSITY
33	15
34	97
35	1001
36	499
37	399
38	1116
39	1364
40	2649
41	2783
42	9999
43	1487
44	975
45	77
47	2151
48	1876
49	757
50	787
51	1549
52	1471
53	568
54	4560
55	1882
56	7951
57	1273
58	56
59	23
60	134
61	421
62	3007
63	209
64	933
65	67
66	21
67	320
68	101
69	422
70	477
71	483
72	58
73	127
74	24
76	5628
77	190
78	1859
79	106
80	77
81	142
82	309
83	207
84	41
88	249
89	499
90	91
91	162
93	20
102	229
104	75
116	102
117	9706
118	459
119	3185
120	154
