Mass Spectrum: Butanoic acid, cyclohexyl ester
Formula: C10 H18 O2
CAS: 1551-44-6
Molecular weight: 170
Origin: NIST Mass Spectrometry Data Center, 1990.
m/z	RELATIVE INTENSITY
15	122
26	236
27	2289
28	927
29	1249
31	138
32	82
39	2168
40	520
41	4998
42	1487
43	7877
44	531
45	223
50	83
51	180
52	106
53	668
54	2071
55	5318
56	379
57	428
58	253
59	83
60	563
65	190
67	7586
68	441
69	157
70	157
71	9999
72	454
73	462
77	157
79	334
81	1694
82	9320
83	3970
84	284
85	157
86	607
87	241
88	1578
89	7586
90	312
99	638
127	519
