Mass Spectrum: Phenol, 2,4-dichloro-6-methyl-
Formula: C7 H6 Cl2 O
CAS: 1570-65-6
Molecular weight: 176
Origin: NIST Mass Spectrometry Data Center, 1998.
m/z	RELATIVE INTENSITY
15	10
25	10
26	60
27	150
28	10
29	80
31	10
35	40
36	60
37	280
38	570
39	310
40	20
41	10
42	20
43	110
44	20
47	70
48	50
49	280
50	1240
51	2410
52	620
53	750
54	60
55	250
56	510
57	170
59	10
60	150
61	470
62	530
63	570
64	50
65	60
66	60
67	90
68	10
70	160
71	110
72	190
73	580
74	850
75	1920
76	400
77	5359
78	590
79	90
80	10
81	10
82	10
83	30
84	220
85	490
86	250
87	380
88	220
89	230
90	50
91	20
95	20
96	60
97	250
98	40
99	120
100	30
101	40
102	20
103	40
104	10
105	380
106	80
107	120
108	50
109	150
110	80
111	1440
112	920
113	1020
114	330
115	200
116	20
117	10
118	10
119	10
120	20
121	30
122	20
123	640
124	60
125	200
126	20
131	10
132	10
133	30
134	10
135	20
136	10
137	10
138	20
139	470
140	240
141	9999
142	840
143	3180
144	250
145	30
146	60
147	100
148	50
149	80
150	10
151	20
157	10
158	90
159	70
160	60
161	50
162	20
163	10
173	10
174	30
175	820
176	7049
177	1040
178	4540
179	420
180	750
181	50
