Mass Spectrum: Benzoic acid, 4-amino-3-nitro-
Formula: C7 H6 N2 O4
CAS: 1588-83-6
Molecular weight: 182
Origin: RADIAN CORP
m/z	RELATIVE INTENSITY
30	640
37	150
38	290
39	70
46	240
50	200
51	220
52	1270
53	770
61	80
62	850
63	1790
64	990
65	1070
66	160
75	100
76	190
78	400
79	80
80	2080
88	60
89	210
90	1420
91	1080
92	150
96	400
106	490
107	70
108	2320
118	600
119	640
124	1410
135	10
136	1320
152	1260
153	30
164	90
165	1010
166	210
182	9999
183	890
184	130
