Mass Spectrum: Azobenzene, 4,4'-dibromo-
Formula: C12 H8 Br2 N2
CAS: 1601-98-5
Molecular weight: 338
Origin: D.HENNEBERG, MAX-PLANCK INSTITUTE, MULHEIM, WEST GERMANY
m/z	RELATIVE INTENSITY
27	249
28	989
29	30
30	15
31	28
32	40
34	4
36	76
38	87
39	346
40	28
41	52
42	24
43	30
44	222
45	22
46	10
47	10
48	6
49	20
50	1932
51	389
52	62
53	12
54	10
55	27
56	48
57	23
60	6
61	13
62	93
63	683
64	284
65	71
66	18
67	12
68	7
69	24
70	13
71	17
73	15
74	274
75	4017
76	5218
77	547
78	85
79	50
80	169
81	46
82	154
87	18
88	38
89	35
90	544
91	105
92	38
93	12
95	6
97	8
98	9
99	30
100	22
101	32
102	70
103	13
104	64
105	54
106	6
107	32
113	14
114	17
116	6
117	32
118	4
119	21
120	5
121	7
123	4
125	35
126	132
127	15
128	11
129	124
130	15
131	153
132	12
137	5
141	7
143	23
145	29
149	26
150	137
151	289
152	993
153	136
154	47
155	9999
156	751
157	9485
158	718
159	22
165	31
166	17
167	70
168	11
169	50
170	34
171	126
172	6
173	62
174	6
179	24
180	13
181	20
182	17
183	5187
184	369
185	4929
186	371
187	13
193	7
194	14
199	15
202	6
205	19
223	18
230	13
231	4
232	9
233	7
234	16
236	18
238	8
258	9
259	14
260	17
262	5
310	6
312	11
338	1947
339	257
340	3666
341	549
342	1795
343	264
344	19
