Mass Spectrum: 2H-Pyran, 3,4-dihydro-6-methyl-
Formula: C6 H10 O
CAS: 16015-11-5
Molecular weight: 98
Origin: CARL DJERASSI DEPT OF CHEM STANFORD UNIV STANFORD CALIF 94305
m/z	RELATIVE INTENSITY
40	300
41	1100
42	200
43	9999
44	300
51	200
52	100
53	500
54	100
55	6200
56	100
57	100
65	100
67	300
68	200
69	200
70	600
71	200
79	100
83	2000
84	100
97	2200
98	3300
99	300
