Mass Spectrum: Diethyl pyrocarbonate
Formula: C6 H10 O5
CAS: 1609-47-8
Molecular weight: 162
Origin: Japan AIST/NIMC Database- Spectrum MS-IW-3833
m/z	RELATIVE INTENSITY
13	10
14	60
15	329
16	20
18	10
25	10
26	409
27	2859
28	1979
29	9999
30	749
31	2689
32	40
39	10
40	10
41	259
42	129
43	729
44	1189
45	7219
46	369
47	359
55	30
56	70
57	10
58	10
59	499
60	20
61	10
63	6269
64	80
65	40
73	419
74	40
75	109
77	10
85	40
89	10
90	479
91	3879
92	139
93	30
118	10
