Mass Spectrum: cis-1,2-Divinylcyclobutane
Formula: C8 H12
CAS: 16177-46-1
Molecular weight: 108
Origin: G.S. GROENEWOLD, THE BRISTOL-MYERS CO., SYRACUSE, N.Y., USA
m/z	RELATIVE INTENSITY
39	3900
41	960
53	1000
54	9999
66	740
67	1100
79	2100
80	1200
91	170
93	640
103	10
105	10
107	30
108	20
