Mass Spectrum: Benzenesulfonyl chloride, 2,4-dichloro-
Formula: C6 H3 Cl3 O2 S
CAS: 16271-33-3
Molecular weight: 244
Origin: NIST Mass Spectrometry Data Center, 1994
m/z	RELATIVE INTENSITY
16	127
25	64
26	117
27	88
28	340
32	276
35	948
36	540
37	1529
38	910
39	124
44	109
45	429
47	395
48	2110
49	1042
50	2808
51	472
53	293
55	584
57	143
60	453
61	953
62	910
63	1059
64	738
65	112
66	68
68	175
69	770
70	86
71	292
72	718
73	2404
74	7828
75	5804
76	349
79	283
80	66
81	327
82	160
83	478
84	1790
85	1237
86	573
87	356
90	297
91	379
92	141
93	205
94	72
95	327
96	124
97	385
98	118
99	229
101	69
103	94
105	239
106	197
107	431
108	69
109	7708
110	1819
111	2579
112	670
113	102
118	96
119	189
120	53
121	176
123	60
126	47
129	106
130	128
131	70
132	47
133	1028
134	99
135	649
136	52
137	99
142	294
143	141
145	9024
146	883
147	5669
148	434
149	950
150	122
161	3121
162	282
163	2129
164	159
165	504
167	155
178	101
180	490
182	429
184	167
193	182
195	125
209	9999
210	945
211	6691
212	593
213	1379
214	127
244	2572
245	191
246	2631
247	199
248	937
249	99
250	110
