Mass Spectrum: Methanone,(2-chlorophenyl)-2-pyridinyl-
Formula: C12 H8 Cl N O
CAS: 1694-57-1
Molecular weight: 217
Origin: ASES Database, Dalian Institute, P.R. China
m/z	RELATIVE INTENSITY
50	890
51	1591
52	390
63	190
74	290
75	2212
76	500
77	900
78	600
111	3563
126	190
127	790
128	290
129	3172
152	90
153	190
154	1601
155	190
182	9999
188	100
189	200
217	290
