Mass Spectrum: Trityl isothiocyanate
Formula: C20 H15 N S
CAS: 1726-94-9
Molecular weight: 301
Origin: NIST Mass Spectrometry Data Center
m/z	RELATIVE INTENSITY
27	30
32	20
38	10
39	110
50	90
51	280
52	50
58	30
59	130
61	10
62	50
63	190
64	20
65	60
69	10
74	80
75	90
76	90
77	270
78	200
79	10
80	10
81	30
82	20
86	50
87	100
88	100
89	130
90	10
91	200
92	10
94	290
98	40
99	40
100	80
101	210
102	60
103	50
106	260
107	260
110	20
111	30
112	60
113	400
114	150
115	440
116	40
119	621
121	250
123	10
125	10
126	100
127	40
128	40
134	30
135	10
137	60
138	40
139	380
140	50
141	50
142	10
146	50
147	10
149	10
151	160
152	190
153	30
154	10
161	20
162	60
163	520
164	691
165	8398
166	1471
167	300
168	30
174	30
175	30
176	130
177	50
178	60
179	10
180	10
186	20
187	120
188	90
189	260
190	100
191	30
192	30
198	10
199	20
200	130
201	100
202	450
203	110
204	10
211	50
212	30
213	290
214	80
215	891
216	190
217	20
222	10
223	10
224	210
225	70
226	530
227	320
228	1141
229	230
230	20
235	10
236	10
237	210
238	120
239	1591
240	561
241	2062
242	1521
243	9999
244	2442
245	260
246	10
269	10
