Mass Spectrum: Dodecanedioic acid, dimethyl ester
Formula: C14 H26 O4
CAS: 1731-79-9
Molecular weight: 258
Origin: NIST Mass Spectrometry Data Center, 1994
m/z	RELATIVE INTENSITY
15	4371
16	94
18	90
26	160
27	2128
28	1395
29	3741
30	200
31	650
32	40
33	130
39	2148
41	7740
42	2406
43	7105
44	409
45	1026
51	67
52	94
53	747
54	751
55	9999
56	1057
57	1686
58	67
59	6282
60	222
61	119
64	29
65	136
66	119
67	1464
68	627
69	5419
70	675
71	615
72	128
73	999
74	8308
75	615
76	64
77	109
78	70
79	561
80	357
81	1354
82	492
83	3222
84	4181
85	641
86	64
87	3315
88	401
91	140
92	86
93	701
94	300
95	832
96	795
97	2417
98	7238
99	648
100	139
101	622
105	113
106	104
107	496
108	237
109	550
110	487
111	1418
112	2279
113	317
114	135
115	312
116	95
119	92
120	86
121	247
122	132
123	392
124	328
125	484
126	357
127	114
128	103
129	304
130	123
133	114
134	281
135	1505
136	174
137	191
138	357
139	152
140	60
141	93
142	207
143	274
144	67
147	103
148	241
149	511
150	156
151	189
152	668
153	2826
154	249
155	58
157	70
159	85
166	690
167	391
168	42
169	42
170	325
171	88
172	108
176	84
177	82
183	36
185	1579
186	202
193	64
194	460
195	133
198	51
227	2058
228	282
