Mass Spectrum: 2-(Thiazolylazo)-p-cresol
Formula: C10 H9 N3 O S
CAS: 1823-44-5
Molecular weight: 219
Origin: NIST Mass Spectrometry Data Center, 1994
m/z	RELATIVE INTENSITY
17	46
18	140
25	86
26	778
27	2103
28	298
33	125
37	363
38	1079
39	5568
40	1483
41	829
42	175
43	988
44	204
45	3039
46	353
47	205
49	117
50	1236
51	3275
52	2093
53	4057
54	564
55	2738
56	260
57	1898
58	2665
59	765
60	198
61	208
62	331
63	1412
64	1003
65	4057
66	1972
67	536
68	94
69	65
70	170
71	275
72	111
73	195
75	217
77	9999
78	4984
79	2805
80	228
81	177
82	104
83	193
84	564
85	469
86	1270
87	144
88	102
89	207
90	137
91	555
92	1033
93	396
94	106
96	135
98	145
99	289
100	486
102	68
103	83
105	2174
107	9319
108	719
110	157
112	159
117	75
118	1067
119	174
120	282
121	143
122	135
123	261
127	86
130	108
132	98
133	258
134	385
135	1273
136	282
137	194
138	100
146	210
147	105
148	1345
149	165
150	590
151	95
162	2174
163	657
164	213
165	288
174	322
176	241
190	2054
191	5463
192	604
193	242
202	112
204	613
205	80
219	4760
220	615
221	247
222	27
