Mass Spectrum: 3-Heptanone, 2,4-dimethyl-
Formula: C9 H18 O
CAS: 18641-71-9
Molecular weight: 142
Origin: NIST Mass Spectrometry Data Center, 1990.
m/z	RELATIVE INTENSITY
27	951
28	55
29	557
31	37
39	953
40	262
41	2129
42	931
43	7793
44	275
51	63
53	158
55	780
56	221
57	167
67	78
69	204
71	9999
72	557
73	33
85	233
99	1018
100	1659
101	110
113	28
142	503
143	52
