Mass Spectrum: Quinoline, 3-ethyl-
Formula: C11 H11 N
CAS: 1873-54-7
Molecular weight: 157
m/z	RELATIVE INTENSITY
62	333
63	1067
64	667
65	400
74	400
75	667
76	400
77	667
78	267
79	267
87	367
88	333
89	933
114	300
115	2666
116	667
117	267
127	600
128	833
129	667
130	567
140	200
141	300
142	9999
143	1267
154	400
155	333
156	1833
157	6666
158	1000
