Mass Spectrum: Benzeneacetic acid, 3-nitro-
Formula: C8 H7 N O4
CAS: 1877-73-2
Molecular weight: 181
Origin: Japan AIST/NIMC Database- Spectrum MS-NW-7261
m/z	RELATIVE INTENSITY
14	10
15	20
16	20
25	10
26	90
27	419
28	429
29	199
30	649
31	60
32	10
36	10
37	229
38	619
39	2549
40	369
41	299
42	70
43	259
44	169
45	1059
46	80
47	10
48	10
49	99
50	909
51	1609
52	499
53	599
54	40
55	289
56	10
57	10
59	40
60	30
61	289
62	959
63	2949
64	1059
65	1239
66	129
67	179
68	20
69	40
73	50
74	269
75	269
76	169
77	4319
78	1199
79	3329
80	239
81	129
82	10
83	20
84	30
85	99
86	209
87	219
88	119
89	5699
90	9629
91	4649
92	399
93	90
94	50
95	279
96	20
97	10
98	10
99	10
102	10
103	20
104	30
105	429
106	239
107	1049
108	80
109	30
111	10
114	10
116	20
117	519
118	70
119	10
120	5209
121	469
122	50
123	179
124	20
125	20
130	10
133	70
134	459
135	2349
136	9579
137	1889
138	179
139	2099
140	159
141	20
142	10
150	20
151	80
152	20
153	289
154	20
163	60
164	689
165	179
166	20
180	10
181	9999
182	949
183	129
184	10
