Mass Spectrum: Benzoic acid, 4-methyl-, phenyl ester
Formula: C14 H12 O2
CAS: 1900-85-2
Molecular weight: 212
Origin: Zaikin V.G., TIPS RAS, Moscow, Russia
m/z	RELATIVE INTENSITY
28	10
38	30
39	280
41	50
50	50
51	110
62	40
63	180
64	60
65	751
66	60
77	40
89	210
90	150
91	2322
92	170
93	40
94	70
118	50
119	9999
120	761
121	40
212	250
213	40
