Mass Spectrum: 2(1H)-Pyridinone, 1-propyl-
Formula: C8 H11 N O
CAS: 19006-63-4
Molecular weight: 137
Origin: NIST Mass Spectrometry Data Center, 1994
m/z	RELATIVE INTENSITY
14	146
15	599
16	21
17	46
18	68
25	52
26	898
27	3810
28	1622
29	537
30	75
37	365
38	1122
39	4282
40	966
41	2806
42	607
43	365
44	58
47	39
49	112
50	893
51	1859
52	1178
53	2852
54	372
55	132
56	66
61	36
63	113
64	188
65	257
66	36
67	9999
68	780
76	43
78	3052
79	619
80	3152
81	1978
82	134
91	50
92	81
93	180
94	50
95	5739
96	2060
97	100
104	415
105	47
106	51
107	47
108	328
109	1500
110	102
118	44
120	1007
122	2072
123	174
136	2608
137	3044
138	297
