Mass Spectrum: Propachlor
Formula: C11 H14 Cl N O
CAS: 1918-16-7
Molecular weight: 211
Origin: ACCUSTANDARD Chemicals / NIST MS Data Center.
m/z	RELATIVE INTENSITY
14	77
15	199
17	3
18	38
26	99
27	1066
28	477
29	77
30	37
35	21
36	28
37	74
38	259
39	1071
40	184
41	1347
42	631
43	2053
44	98
47	14
48	75
49	678
50	426
51	1724
52	281
53	52
54	32
55	28
56	14
57	1803
58	129
59	26
61	29
62	88
63	351
64	458
65	701
66	197
67	36
70	5
73	16
74	69
75	99
76	5
77	4079
78	411
79	315
80	29
86	8
87	10
88	16
89	75
90	121
91	677
92	732
93	3125
94	632
95	45
99	6
100	7
101	6
102	22
104	1123
105	175
106	504
107	47
112	8
115	74
116	38
117	181
118	1144
119	8
120	9999
121	882
122	39
125	12
127	9
129	6
130	20
132	160
133	314
134	655
135	79
136	6
140	15
146	2
148	6
151	19
152	35
153	10
154	17
155	13
160	12
162	92
163	14
169	1609
170	198
171	526
172	57
173	7
176	3712
177	441
178	32
196	974
197	117
198	320
199	31
211	810
212	113
213	270
214	40
