Mass Spectrum: 3,4-Xylyl isothiocyanate
Formula: C9 H9 N S
CAS: 19241-17-9
Molecular weight: 163
Origin: NIST Mass Spectrometry Data Center, 1994
m/z	RELATIVE INTENSITY
14	60
15	284
26	357
27	2116
29	105
32	225
33	40
34	37
36	43
37	322
38	750
39	3097
40	256
41	368
44	321
45	1017
46	50
47	56
49	144
50	1559
51	3054
52	771
53	785
54	142
55	37
57	93
58	313
59	337
60	160
61	304
62	771
63	2054
64	788
65	947
66	222
67	156
68	66
69	230
70	551
71	102
72	183
73	66
74	560
75	643
76	692
77	3839
78	1606
79	1486
80	342
81	66
82	556
83	237
84	224
85	96
86	147
87	201
88	166
89	885
90	458
91	646
92	134
93	68
94	87
95	111
96	156
97	45
98	117
99	59
101	209
102	576
103	1607
104	1112
105	7450
106	619
107	69
108	99
109	107
114	48
115	33
116	637
117	193
118	372
119	64
120	63
121	459
122	201
123	57
128	338
129	147
130	1116
131	263
132	57
133	53
134	145
135	387
136	197
146	63
148	5338
149	511
150	306
151	38
160	82
162	2577
163	9999
164	1173
165	567
166	59
