Mass Spectrum: 3-(4-Methoxyphenyl)propionic acid
Formula: C10 H12 O3
CAS: 1929-29-9
Molecular weight: 180
Origin: NIST Mass Spectrometry Data Center, 1994
m/z	RELATIVE INTENSITY
15	152
18	10
26	35
27	155
28	108
29	65
30	12
31	42
32	16
37	18
38	78
39	413
40	48
41	117
42	65
43	41
45	289
46	12
50	201
51	398
52	189
53	133
54	19
55	85
61	28
62	99
63	315
64	152
65	494
66	76
67	62
73	10
74	61
75	56
76	10
77	968
78	563
79	217
80	19
81	36
87	12
89	209
90	128
91	958
92	207
93	44
94	37
95	19
101	15
102	47
103	161
104	52
105	160
106	91
107	80
108	40
109	45
118	39
119	273
121	9999
122	880
123	57
133	40
134	251
135	110
136	14
137	62
149	13
180	2101
181	225
182	24
