Mass Spectrum: 2-Propyn-1-ol, propionate
Formula: C6 H8 O2
CAS: 1932-92-9
Molecular weight: 112
Origin: NIST Mass Spectrometry Data Center, 1990.
m/z	RELATIVE INTENSITY
13	46
14	168
15	125
24	48
25	209
26	1102
27	3393
28	1209
29	6094
30	186
31	72
32	6
36	66
37	623
38	1258
39	5027
40	326
41	122
42	212
43	125
44	67
45	163
52	50
53	302
54	113
55	806
56	50
57	9999
58	343
59	27
67	45
69	39
83	318
84	47
