Mass Spectrum: 2-Hexanol, 3,4-dimethyl-
Formula: C8 H18 O
CAS: 19550-05-1
Molecular weight: 130
Origin: NIST Mass Spectrometry Data Center, 1990.
m/z	RELATIVE INTENSITY
15	301
19	257
27	2204
28	1342
29	2552
31	280
32	157
39	1501
41	4118
43	8498
44	1177
45	9999
46	265
53	462
55	2498
56	2893
57	4174
58	313
59	533
67	189
69	1472
70	321
71	619
72	388
73	219
83	1260
84	4174
85	3054
86	380
97	528
112	249
115	169
