Mass Spectrum: 2-Oxetanone, 3,3-dimethyl-
Formula: C5 H8 O2
CAS: 1955-45-9
Molecular weight: 100
Origin: NIST Mass Spectrometry Data Center, 1998.
m/z	RELATIVE INTENSITY
13	10
14	40
15	130
25	40
26	320
27	1310
28	710
29	880
30	140
31	40
36	30
37	370
38	760
39	4600
40	1430
41	9999
42	6199
43	890
44	180
45	80
48	10
49	70
50	280
51	240
52	70
53	370
54	120
55	900
56	6449
57	350
58	10
69	150
70	6959
71	320
72	40
83	10
101	10
