Mass Spectrum: 2-Pentanone, 3-ethyl-3-methyl-
Formula: C8 H16 O
CAS: 19780-65-5
Molecular weight: 128
Origin: NIST Mass Spectrometry Data Center, 1990.
m/z	RELATIVE INTENSITY
15	128
26	78
27	677
28	104
29	659
32	7
39	819
40	189
41	1973
42	7
43	9999
44	324
45	40
50	62
51	147
52	60
53	342
54	100
55	734
56	249
57	1899
58	88
65	49
67	101
69	788
70	57
71	41
79	38
84	1398
85	4146
86	296
99	130
100	956
101	63
128	86
