Mass Spectrum: Cyanopyrazine
Formula: C5 H3 N3
CAS: 19847-12-2
Molecular weight: 105
Origin: NIST Mass Spectrometry Data Center
m/z	RELATIVE INTENSITY
12	170
13	60
24	270
25	631
26	4954
27	871
28	270
36	110
37	290
38	1321
39	671
40	260
41	30
48	50
50	761
51	7357
52	1421
53	2292
54	70
62	40
63	20
64	90
65	40
66	20
76	390
77	841
78	8067
79	410
80	10
102	10
105	9999
106	601
107	20
