Mass Spectrum: Benzenepropanol, .gamma.-phenyl-
Formula: C15 H16 O
CAS: 20017-67-8
Molecular weight: 212
Origin: D.HENNEBERG, MAX-PLANCK INSTITUTE, MULHEIM, WEST GERMANY
m/z	RELATIVE INTENSITY
26	99
27	219
28	221
29	66
30	12
31	230
32	1
34	3
37	4
38	27
39	353
40	25
41	34
45	29
46	7
49	4
50	158
51	565
52	112
53	60
54	5
55	31
56	9
58	67
59	4
61	6
62	57
63	270
64	50
65	243
66	17
68	4
69	15
70	15
72	16
73	10
74	63
75	88
76	189
77	908
78	270
79	163
80	11
81	22
82	141
83	250
84	8
85	5
86	24
87	56
88	76
89	333
90	43
91	412
92	75
93	7
96	112
97	29
98	14
99	22
100	8
101	34
102	178
103	796
104	250
105	198
106	14
107	102
108	9
110	4
111	9
112	4
113	39
114	31
115	714
116	649
117	286
118	31
119	10
120	3
122	7
125	5
126	52
127	64
128	203
129	29
130	4
131	11
132	7
133	18
134	19
135	8
136	5
137	17
139	212
140	34
141	126
142	19
145	3
146	3
147	4
149	5
150	37
151	195
152	1546
153	281
154	37
155	8
158	4
159	4
161	8
163	162
164	228
165	3056
166	1132
167	9999
168	1630
169	110
170	7
174	3
175	16
176	69
177	96
178	500
179	649
180	176
181	89
182	18
183	8
184	2
185	4
186	5
187	11
188	8
189	40
190	17
191	64
192	175
193	1452
194	2804
195	460
196	38
202	3
204	4
207	24
208	19
209	12
210	65
211	14
212	1365
213	242
214	24
