Mass Spectrum: Benzene, 1,1',1'',1'''-(1-propyn-1-yl-3-ylidyne)tetrakis-
Formula: C27 H20
CAS: 20143-13-9
Molecular weight: 344
m/z	RELATIVE INTENSITY
163	400
164	400
165	1501
166	400
167	100
187	200
188	200
189	701
250	100
251	100
252	1001
253	701
254	100
265	2702
266	1001
267	4504
268	1001
269	300
340	300
341	200
342	300
343	1201
344	9999
345	3003
