Mass Spectrum: 1H-Pyrrole, 1-(phenylmethyl)-
Formula: C11 H11 N
CAS: 2051-97-0
Molecular weight: 157
m/z	RELATIVE INTENSITY
36	10
37	120
38	340
39	1361
40	210
41	330
42	30
43	40
44	220
45	10
46	10
48	10
49	30
50	370
51	821
52	270
53	290
54	40
55	30
56	10
57	20
58	10
59	10
60	10
61	40
62	140
63	480
64	200
65	1391
66	140
67	80
68	10
69	10
70	10
71	10
72	10
73	10
74	70
75	80
76	90
77	460
78	250
79	210
80	981
81	70
82	10
83	10
84	10
85	10
86	20
87	30
88	20
89	290
90	130
91	9999
92	1231
93	80
94	20
95	10
96	10
97	10
98	10
99	10
101	30
102	60
103	50
104	60
105	50
106	40
107	80
108	10
109	10
110	10
111	10
112	10
113	10
114	10
115	50
116	40
117	30
118	10
119	10
120	10
121	10
122	10
123	10
124	10
125	10
126	30
127	150
128	270
129	140
130	70
131	10
132	10
133	10
134	10
135	10
136	10
137	10
138	10
139	10
140	10
141	20
142	10
143	10
144	10
145	10
146	10
147	10
149	10
150	10
151	10
152	10
153	30
154	200
155	160
156	1121
157	1301
158	520
159	50
