Mass Spectrum: 1,2-Indandione, 3,3-dimethyl-
Formula: C11 H10 O2
CAS: 20651-88-1
Molecular weight: 174
Origin: J.H.BOWIE UNIVERSITY OF ADELAIDE, AUSTRALIA
m/z	RELATIVE INTENSITY
27	1000
28	600
38	700
39	3600
40	500
50	2900
51	5700
52	1100
62	900
63	2000
65	1500
74	1300
75	1300
76	1600
77	4400
78	4300
79	400
89	700
91	3000
92	300
102	1400
103	5900
104	700
115	2900
116	1100
117	8800
118	4200
131	9999
132	1100
145	3500
146	9400
147	1200
174	2800
