Mass Spectrum: 4-(2-Nitrophenyl)but-3-en-2-one
Formula: C10 H9 N O3
CAS: 20766-40-9
Molecular weight: 191
Origin: Japan AIST/NIMC Database- Spectrum MS-IW-5409
m/z	RELATIVE INTENSITY
14	20
15	299
17	10
18	10
26	40
27	199
28	30
29	10
30	99
31	10
32	10
37	40
38	189
39	819
40	70
41	109
42	109
43	9999
44	329
45	50
46	10
49	30
50	969
51	2559
52	439
53	119
54	20
55	60
56	10
57	80
58	40
59	10
61	80
62	299
63	1009
64	419
65	2199
66	779
67	169
68	20
69	179
70	20
71	30
72	10
73	50
74	599
75	1129
76	1549
77	1819
78	459
79	139
80	20
81	10
83	10
85	99
86	70
87	119
88	80
89	999
90	609
91	999
92	3529
93	2549
94	249
95	20
97	20
98	90
99	40
100	40
101	939
102	2659
103	989
104	1129
105	569
106	60
107	10
108	10
109	10
113	30
114	40
115	739
116	409
117	179
118	329
119	109
120	6359
121	1069
122	90
126	20
127	50
128	109
129	209
130	9909
131	1859
132	2629
133	389
134	50
135	20
140	10
141	20
142	70
143	549
144	279
145	4129
146	649
147	60
148	1299
149	1479
150	129
151	20
159	259
160	30
161	20
162	20
173	10
174	20
175	10
176	579
177	60
190	30
191	80
192	10
