Mass Spectrum: Benzene, (1-propylbutyl)-
Formula: C13 H20
CAS: 2132-86-7
Molecular weight: 176
Origin: D.HENNEBERG, MAX-PLANCK INSTITUTE, MULHEIM, WEST GERMANY
m/z	RELATIVE INTENSITY
26	89
27	938
28	149
29	469
38	179
39	778
40	119
41	868
42	129
43	379
50	169
51	459
52	159
53	169
55	309
56	69
62	99
63	239
64	89
65	429
66	69
74	69
75	99
76	99
77	548
78	409
79	189
89	159
90	129
91	9999
92	948
93	79
99	4
101	69
102	149
103	379
104	698
105	359
106	69
114	59
115	349
116	149
117	299
118	89
119	69
127	79
128	109
129	89
131	99
132	129
133	2764
134	429
135	59
145	69
176	1077
