Mass Spectrum: Propanenitrile, 3-ethoxy-
Formula: C5 H9 N O
CAS: 2141-62-0
Molecular weight: 99
Origin: Japan AIST/NIMC Database- Spectrum MS-NW-1056
m/z	RELATIVE INTENSITY
12	10
13	30
14	149
15	499
16	10
17	10
18	40
25	40
26	619
27	2409
28	869
29	3539
30	99
31	9999
32	50
33	20
37	20
38	70
39	119
40	249
41	1069
42	559
43	649
44	159
45	1399
46	50
50	10
51	139
52	389
53	149
54	7139
55	1289
56	109
57	1189
58	80
59	5879
60	189
61	10
68	119
69	40
70	239
71	80
72	139
82	10
84	889
85	40
98	299
99	20
