Mass Spectrum: Naphthalene, 1,2,3,4-tetrahydro-5,7-dimethyl-
Formula: C12 H16
CAS: 21693-54-9
Molecular weight: 160
Origin: CONTINENTAL OIL CO., PONCA CITY, OKLA., USA
m/z	RELATIVE INTENSITY
13	13
14	28
15	632
16	10
25	4
26	101
27	954
28	324
29	208
30	10
37	15
38	117
39	1279
40	163
41	552
42	34
43	25
44	13
49	15
50	254
51	886
52	257
53	486
54	43
55	57
56	51
57	93
58	5
61	25
62	151
63	577
64	443
65	693
66	110
67	102
68	19
69	58
70	152
71	354
72	4
74	111
75	175
76	229
77	966
78	489
79	569
80	123
81	3
86	44
87	72
88	38
89	201
90	56
91	1183
92	136
93	43
97	12
98	38
99	27
100	17
101	61
102	216
103	330
104	189
105	564
106	83
107	18
109	21
110	18
111	16
112	5
113	57
114	71
115	1569
116	559
117	1441
118	252
119	1218
120	125
121	5
125	22
126	70
127	422
128	1374
129	1259
130	695
131	699
132	4110
133	490
134	60
138	7
139	81
140	53
141	480
142	299
143	466
144	417
145	9999
146	1183
147	78
151	30
152	55
153	48
154	27
155	45
156	32
157	70
158	81
159	924
160	5178
161	706
162	42
