Mass Spectrum: 2(5H)-Furanone, 3-methyl-
Formula: C5 H6 O2
CAS: 22122-36-7
Molecular weight: 98
Origin: Chemical Concepts
m/z	RELATIVE INTENSITY
25	18
26	904
27	1614
29	269
30	114
31	77
37	519
38	941
39	4922
40	1633
41	9999
42	866
43	250
44	135
45	404
49	58
50	557
51	615
52	250
53	787
55	327
57	18
68	384
69	6365
70	480
84	18
97	18
98	4308
99	269
