Mass Spectrum: N-Methyl-N-(N,N-dimethylaminoethyl)-aminoethanol
Formula: C7 H18 N2 O
CAS: 2212-32-0
Molecular weight: 146
Origin: Japan AIST/NIMC Database- Spectrum MS-IW-3780
m/z	RELATIVE INTENSITY
15	189
17	20
18	119
19	20
26	10
27	159
28	259
29	149
30	319
31	60
39	20
40	30
41	139
42	1359
43	479
44	2979
45	939
46	20
52	10
54	70
55	70
56	379
57	399
58	9499
59	399
60	10
68	10
69	10
70	469
71	1389
72	1099
73	70
74	10
82	10
83	30
84	10
85	20
86	40
87	40
88	9999
89	509
90	30
97	20
98	10
99	60
100	60
101	10
102	90
113	259
114	30
115	50
116	179
117	10
128	409
129	70
