Mass Spectrum: Dibenzo[a,l]pentacene
Formula: C30 H18
CAS: 227-09-8
Molecular weight: 378
Origin: Chemical Concepts
m/z	RELATIVE INTENSITY
27	18
38	1
39	33
50	16
51	18
62	17
63	30
74	15
75	12
86	3
87	3
98	1
110	1
117	11
124	1
125	15
126	20
136	3
137	4
138	1
148	4
149	19
150	18
151	1
160	4
161	36
162	38
163	28
167	2
169	2
173	43
174	88
175	134
176	73
179	5
181	1
185	19
186	104
187	239
188	363
189	875
190	55
191	2
192	4
196	3
198	4
199	2
200	3
203	1
211	1
213	4
223	2
224	5
226	4
236	4
237	3
239	2
246	4
248	7
259	4
261	4
262	4
263	5
265	3
267	18
268	10
272	5
274	4
276	2
277	1
279	11
280	1
282	3
283	4
285	11
287	4
291	4
296	15
297	4
298	22
299	4
300	17
301	4
309	33
310	10
311	17
313	4
315	4
320	6
322	25
323	8
324	23
325	4
326	21
327	4
328	35
329	5
334	4
335	21
336	4
337	21
338	4
339	5
343	4
345	4
346	42
347	23
348	82
349	43
350	120
351	45
352	69
353	23
354	4
358	4
361	27
363	25
364	4
371	21
372	138
373	78
374	520
375	226
376	960
377	373
378	9999
379	3169
380	576
381	82
