Mass Spectrum: Benzoic acid, 2-methoxy-, pentyl ester
Formula: C13 H18 O3
CAS: 22708-14-1
Molecular weight: 222
Origin: Zaikin V.G., TIPS RAS, Moscow, Russia
m/z	RELATIVE INTENSITY
26	20
27	160
28	10
29	230
30	10
31	10
36	10
37	10
38	40
39	170
40	20
41	290
42	120
43	270
44	30
50	90
51	200
52	30
53	40
55	130
57	10
62	20
63	170
64	210
65	100
66	10
67	10
69	30
70	50
71	20
74	20
75	30
76	140
77	1481
78	190
79	260
80	10
81	20
90	20
91	30
92	721
93	90
94	40
104	50
105	941
106	210
107	140
108	60
109	10
118	30
119	40
120	210
121	240
122	110
123	2022
124	140
125	10
133	821
134	390
135	9999
136	711
137	60
151	190
152	1702
153	1301
154	110
155	10
165	30
179	10
180	30
222	1071
223	150
224	10
