Mass Spectrum: Decanoic acid, 2,3-dihydroxypropyl ester
Formula: C13 H26 O4
CAS: 2277-23-8
Molecular weight: 246
Origin: Japan AIST/NIMC Database- Spectrum MS-IW-4091
m/z	RELATIVE INTENSITY
15	139
17	30
18	109
26	30
27	609
28	319
29	1459
30	50
31	519
32	20
39	369
40	80
41	2379
42	759
43	4469
44	679
45	579
46	40
47	30
51	10
52	10
53	149
54	199
55	2519
56	1319
57	3509
58	179
59	199
60	589
61	779
62	30
63	20
65	20
66	20
67	499
68	299
69	1479
70	439
71	2719
72	169
73	1069
74	5619
75	1309
76	60
77	30
78	10
79	109
80	40
81	829
82	199
83	789
84	2699
85	1779
86	129
87	1559
88	159
89	289
90	10
91	50
93	279
94	50
95	829
96	99
97	669
98	3449
99	269
100	40
101	529
102	90
103	249
104	30
107	70
108	20
109	50
110	179
111	349
112	1329
113	129
114	10
115	289
116	1129
117	159
118	10
121	40
123	20
124	10
125	129
126	249
127	30
128	10
129	789
130	90
131	30
132	10
134	4309
135	329
136	90
137	209
138	20
139	60
142	20
143	979
144	99
145	10
147	359
148	30
149	20
152	30
153	129
154	1309
155	9999
156	1129
157	229
158	30
161	10
170	10
171	60
172	1719
173	3899
174	419
175	50
176	159
177	10
185	90
186	1779
187	229
188	20
190	20
198	10
199	20
203	10
213	10
215	3629
216	519
217	60
218	10
227	10
228	30
229	30
245	10
246	20
247	50
