Mass Spectrum: Naphtho[2,1-b]furan
Formula: C12 H8 O
CAS: 232-95-1
Molecular weight: 168
m/z	RELATIVE INTENSITY
63	500
139	1501
141	500
168	9999
169	1001
