Mass Spectrum: 2-Cyclopenten-1-one, 3,5,5-trimethyl-
Formula: C8 H12 O
CAS: 24156-95-4
Molecular weight: 124
Origin: G.S.KING QUEEN CHARLOTTE'S & CHELSEA HOSPITALS, LONDON, UK
m/z	RELATIVE INTENSITY
38	220
39	2080
40	670
41	1670
44	260
50	210
51	290
53	970
54	290
55	550
56	480
65	200
67	410
68	200
77	330
79	730
81	2540
82	660
109	9999
110	680
124	2890
125	220
