Mass Spectrum: Ethane, 1,1,2-trimethoxy-
Formula: C5 H12 O3
CAS: 24332-20-5
Molecular weight: 120
Origin: Japan AIST/NIMC Database- Spectrum MS-NW-1065
m/z	RELATIVE INTENSITY
14	60
15	929
16	20
18	10
26	30
27	159
28	269
29	879
30	99
31	1679
32	80
33	40
41	30
42	139
43	789
44	60
45	1509
46	30
47	1939
48	40
57	20
58	199
59	1719
60	60
61	10
73	289
74	139
75	9999
76	339
77	40
88	339
89	1579
90	70
119	20
