Mass Spectrum: Butanoic acid, 3-methyl-, 2-methylbutyl ester
Formula: C10 H20 O2
CAS: 2445-77-4
Molecular weight: 172
m/z	RELATIVE INTENSITY
15	70
17	112
18	713
20	70
27	490
28	167
29	1451
30	70
31	90
32	190
39	470
40	100
41	2702
42	1181
43	4614
44	230
45	290
53	130
54	90
55	1722
56	641
57	5565
58	340
59	160
60	841
61	280
69	340
70	9999
71	2923
72	180
74	170
83	60
84	130
85	8027
86	440
87	661
89	150
98	90
101	150
102	380
103	761
114	90
115	420
116	50
130	180
142	100
143	40
144	60
172	60
