Mass Spectrum: Propargylamine
Formula: C3 H5 N
CAS: 2450-71-7
Molecular weight: 55
Origin: Japan AIST/NIMC Database- Spectrum MS-NW-6797
m/z	RELATIVE INTENSITY
12	30
13	20
14	20
15	20
16	60
17	60
18	129
24	60
25	209
26	459
27	759
28	3579
29	989
30	409
36	80
37	369
38	709
39	1689
40	159
41	60
50	139
51	529
52	1149
53	289
54	9999
55	1739
56	119
