Mass Spectrum: [1]Benzothieno[3,2-b][1]benzothiophene
Formula: C14 H8 S2
CAS: 248-70-4
Molecular weight: 240
m/z	RELATIVE INTENSITY
12	20
13	10
14	100
15	20
16	20
17	10
18	50
23	10
25	10
26	30
27	50
28	1001
29	10
32	90
33	10
34	20
36	10
37	30
38	70
39	270
40	10
41	20
42	10
43	10
44	40
45	200
46	10
47	10
48	10
49	10
50	110
51	90
52	10
53	10
54	10
55	10
56	10
57	30
58	30
59	10
60	10
61	50
62	110
63	160
64	20
65	20
66	10
67	10
68	10
69	380
70	60
71	50
72	10
73	20
74	100
75	130
76	140
77	40
78	20
79	10
80	50
81	50
82	80
83	20
84	20
85	70
86	80
87	100
88	40
89	40
90	10
91	50
92	30
93	220
94	110
95	50
96	20
97	80
98	120
99	60
100	20
101	30
102	20
103	40
104	160
105	40
106	50
107	260
108	70
109	20
110	30
111	30
112	20
113	50
114	30
115	10
116	10
117	60
118	20
119	200
120	1712
121	210
122	30
123	20
124	10
125	40
126	50
127	20
128	10
129	10
130	10
131	10
132	30
133	10
134	20
135	10
136	10
137	50
138	50
139	40
140	10
141	20
142	10
143	10
144	20
145	100
146	30
147	10
148	10
149	20
150	110
151	110
152	260
153	40
154	10
155	10
156	20
157	20
158	40
159	10
160	10
161	30
162	60
163	330
164	130
165	30
166	10
167	10
168	20
169	170
170	90
171	80
172	20
173	10
174	20
175	10
176	20
177	10
178	10
179	10
180	10
181	10
182	40
183	10
184	10
188	10
189	10
190	30
191	10
192	10
193	50
194	80
195	230
196	140
197	40
198	10
199	10
200	10
201	40
202	20
203	10
204	10
205	10
206	70
207	50
208	440
209	70
210	40
211	10
212	10
213	10
214	40
215	10
216	10
225	10
234	10
237	10
238	170
239	300
240	9999
241	1762
242	1041
243	160
244	40
245	10
