Mass Spectrum: 1H-1,2,4-Triazole, 3-nitro-
Formula: C2 H2 N4 O2
CAS: 24807-55-4
Molecular weight: 114
Origin: E.J.BROWNE UNIV. OF TASMANIA, HOBART, TASMANIA
m/z	RELATIVE INTENSITY
12	100
13	200
26	200
27	700
28	2500
29	3600
30	6100
38	400
39	600
40	700
41	900
42	500
43	100
46	1800
53	400
55	100
67	200
68	500
69	1600
70	100
71	100
84	100
86	900
98	500
114	9999
115	400
