Mass Spectrum: Silane, trimethoxy[3-(oxiranylmethoxy)propyl]-
Formula: C9 H20 O5 Si
CAS: 2530-83-8
Molecular weight: 236
Origin: Japan AIST/NIMC Database- Spectrum MS-NW-2813
m/z	RELATIVE INTENSITY
14	20
15	159
16	10
18	20
26	60
27	299
28	249
29	519
30	60
31	639
32	20
38	10
39	99
40	30
41	279
42	339
43	90
44	40
45	249
46	10
47	90
54	10
55	60
56	70
57	269
58	119
59	599
60	159
61	509
62	30
63	40
67	10
68	10
69	10
70	10
71	129
72	10
73	10
74	99
75	40
76	50
77	329
78	30
79	40
83	10
85	20
86	10
87	90
88	10
89	20
90	619
91	2669
92	219
93	169
95	10
97	10
99	20
100	10
101	30
102	10
103	50
104	189
105	80
106	20
107	1009
108	80
109	119
111	10
114	50
115	139
116	30
117	509
118	90
119	179
120	459
121	9999
122	879
123	439
124	20
127	10
128	10
129	10
130	30
131	159
132	50
133	729
134	90
135	249
136	40
137	50
138	20
139	50
144	50
145	90
146	139
147	4489
148	579
149	699
150	70
151	169
152	20
153	10
157	10
158	10
159	40
160	20
161	329
162	159
163	519
164	60
165	60
167	10
172	149
173	70
174	40
175	60
176	20
177	80
178	10
179	10
189	20
191	20
193	10
203	20
204	10
205	10
