Mass Spectrum: 2,6-Diethylphenyl isothiocyanate
Formula: C11 H13 N S
CAS: 25343-69-5
Molecular weight: 191
Origin: NIST Mass Spectrometry Data Center, 1994
m/z	RELATIVE INTENSITY
15	287
26	147
27	1266
28	422
29	787
32	80
37	86
38	250
39	1803
40	184
41	420
42	73
44	87
45	636
47	69
50	737
51	1578
52	511
53	524
54	99
55	69
57	111
58	167
59	310
60	93
61	127
62	399
63	1305
64	426
65	981
66	185
67	173
69	181
70	285
71	250
72	269
73	93
74	355
75	496
76	598
77	2517
78	629
79	431
80	258
84	140
85	52
87	219
88	203
89	847
90	429
91	1662
92	125
93	62
95	86
96	101
98	92
101	272
102	588
103	916
104	471
105	919
106	78
108	89
109	78
113	90
115	2320
116	1152
117	1447
118	636
119	87
121	170
122	75
126	58
127	237
128	1966
129	520
130	970
131	326
132	570
133	778
134	815
135	249
136	127
140	88
141	198
142	885
143	2417
144	763
145	110
146	121
147	146
148	260
149	469
154	174
155	78
156	621
157	196
158	2579
159	521
160	435
161	558
162	2463
163	417
164	165
173	67
174	154
176	8875
177	1158
178	410
190	3019
191	9999
192	1416
193	499
