Mass Spectrum: 2-Benzothiazolamine, 6-methyl-
Formula: C8 H8 N2 S
CAS: 2536-91-6
Molecular weight: 164
Origin: Japan AIST/NIMC Database- Spectrum MS-NW-4756
m/z	RELATIVE INTENSITY
14	10
17	20
18	79
26	40
27	149
28	70
29	10
37	60
38	109
39	379
40	40
41	30
42	30
43	60
44	60
45	339
46	10
47	20
49	30
50	179
51	439
52	209
53	99
54	30
55	20
56	10
57	50
58	80
59	70
60	169
61	90
62	99
63	309
64	90
65	209
66	179
67	30
68	30
69	469
70	139
71	99
72	10
73	10
74	50
75	70
76	129
77	779
78	699
79	99
80	20
81	99
82	479
83	99
84	90
85	40
86	20
87	20
88	20
89	60
90	50
91	60
92	179
93	109
94	60
95	99
96	80
97	40
98	10
102	70
103	139
104	559
105	539
106	139
107	20
108	40
109	369
110	1069
111	109
112	60
113	10
114	10
117	10
118	30
119	139
120	50
121	939
122	609
123	109
124	50
125	10
129	30
130	30
131	619
132	149
133	20
134	30
135	30
136	1399
137	729
138	139
139	30
146	50
147	40
148	60
149	60
150	10
161	10
162	60
163	4349
164	9999
165	1199
166	519
167	50
