Mass Spectrum: 4H-1,3-Benzodioxin
Formula: C8 H8 O2
CAS: 254-27-3
Molecular weight: 136
Origin: ORMSBG,9(12)1166(1974); DIZABO
m/z	RELATIVE INTENSITY
50	1660
51	2660
52	1930
53	120
54	1690
55	320
59	170
61	140
62	320
63	670
64	160
65	320
66	320
67	320
68	640
74	500
75	320
76	400
77	1610
78	9999
79	1050
82	3940
83	260
105	120
106	2860
107	470
110	1140
136	1950
137	170
