Mass Spectrum: 2H-Pyran, 2,5-diethenyltetrahydro-
Formula: C9 H14 O
CAS: 25724-33-8
Molecular weight: 138
Origin: J.E. WILKINSON S-CUBED, SAN DIEGO, CA.
m/z	RELATIVE INTENSITY
41	1190
42	51
43	34
44	204
49	34
50	17
51	153
52	51
53	595
54	9999
55	833
56	102
57	51
65	170
66	374
67	1735
68	51
69	17
77	68
78	102
79	1122
80	510
81	119
83	17
84	68
91	17
93	357
96	17
97	595
109	204
110	17
