Mass Spectrum: 3-Nonanol, 2-methyl-
Formula: C10 H22 O
CAS: 26533-33-5
Molecular weight: 158
Origin: NIST Mass Spectrometry Data Center, 1990.
m/z	RELATIVE INTENSITY
27	1787
28	674
29	1620
31	456
39	1090
40	326
41	3313
42	647
43	3663
44	852
45	595
53	309
55	9999
56	932
57	1642
58	186
59	182
67	241
69	2186
70	378
71	400
73	4371
74	201
81	287
83	185
85	243
86	169
97	7339
98	610
113	249
114	517
115	2198
116	176
