Mass Spectrum: 3-Octanol, 2-methyl-
Formula: C9 H20 O
CAS: 26533-34-6
Molecular weight: 144
Origin: NIST Mass Spectrometry Data Center, 1990.
m/z	RELATIVE INTENSITY
15	147
27	2500
28	350
29	2286
30	141
31	712
39	1714
40	439
41	5105
42	732
43	3398
44	1260
45	941
52	98
53	489
55	9999
56	1963
57	1942
58	177
59	335
65	113
67	386
68	201
69	1829
70	458
71	552
72	548
73	4731
74	233
83	9044
84	699
99	160
100	991
101	2795
102	203
111	138
126	397
