Mass Spectrum: 8-Phenyloctanoic acid
Formula: C14 H20 O2
CAS: 26547-51-3
Molecular weight: 220
Origin: NIST Mass Spectrometry Data Center, 1994
m/z	RELATIVE INTENSITY
15	24
17	30
18	82
19	25
26	47
27	1124
28	227
29	790
30	20
31	11
37	22
38	65
39	1245
40	185
41	1875
42	426
43	579
44	59
45	1100
46	41
47	18
50	154
51	581
52	168
53	236
54	88
55	1395
56	149
57	96
58	20
59	5
60	599
61	48
62	48
63	296
64	91
65	1602
66	109
67	161
68	100
69	592
70	57
71	43
72	5
73	386
74	14
75	72
76	76
77	716
78	730
79	509
80	82
81	87
82	57
83	483
84	423
85	54
86	20
87	114
88	37
89	240
90	14
91	9999
92	5880
93	511
94	50
95	31
96	139
97	120
98	1445
99	124
100	15
101	31
102	74
103	292
104	811
105	1202
106	191
107	98
108	18
110	23
111	241
112	22
114	14
115	221
116	76
117	394
118	125
119	251
120	84
121	14
124	18
127	21
128	51
129	91
130	32
131	72
132	14
133	430
134	112
135	17
141	41
142	52
143	28
145	30
146	17
147	69
148	24
156	18
158	40
159	39
160	43
161	27
169	17
173	13
183	18
184	65
185	15
202	114
203	28
220	728
221	115
