Mass Spectrum: 3-Hexenoic acid, ethyl ester, (E)-
Formula: C8 H14 O2
CAS: 26553-46-8
Molecular weight: 142
Origin: FOOD RESEARCH REPORT 120, K.E. MURRAY & COLLEAGUES, DIV. OF FOOD RESEARCH, CSIRO, AUSTRALIA
m/z	RELATIVE INTENSITY
26	500
27	3400
29	9700
30	300
31	400
38	300
39	2400
40	500
41	9999
42	1100
43	800
45	400
50	200
51	300
52	200
53	1000
54	600
55	1600
56	400
57	300
60	800
61	300
63	100
65	100
66	100
67	800
68	2900
69	7000
70	700
71	1100
72	100
73	400
81	300
82	100
83	100
85	200
88	1000
95	100
96	500
97	700
99	200
113	200
114	200
142	900
143	100
