Mass Spectrum: 1-Azabicyclo[2.2.2]octane-4-methanol
Formula: C8 H15 N O
CAS: 26608-58-2
Molecular weight: 141
Origin: J. PALECEK,DEP. ORG. CHEM.,INST. CHEM. TECHNOL.,PRAGUE,CZECH.
m/z	RELATIVE INTENSITY
27	1220
28	1180
29	950
39	880
41	2090
42	7260
43	1350
44	1150
53	810
55	1420
56	880
57	1220
69	1450
70	740
82	530
96	1620
110	9999
111	1010
112	1080
113	540
124	1080
141	3140
