Mass Spectrum: Cyclotetramethylenetetranitramine
Formula: C4 H8 N8 O8
CAS: 2691-41-0
Molecular weight: 296
m/z	RELATIVE INTENSITY
30	6506
39	200
40	200
41	400
42	2502
43	701
44	2702
45	100
46	9999
47	200
48	200
52	200
53	200
54	200
55	300
56	500
57	601
58	200
59	100
64	100
67	100
68	100
69	200
71	200
72	100
73	100
74	200
75	1001
76	100
81	100
82	200
83	200
84	200
85	100
97	200
98	200
99	300
102	200
103	701
104	200
105	200
120	701
128	901
129	200
130	200
148	1201
149	200
205	200
221	100
222	200
