Mass Spectrum: Acetic acid, (4-chloro-2-methylphenoxy)-, ethyl ester
Formula: C11 H13 Cl O3
CAS: 2698-38-6
Molecular weight: 228
Origin: L.N.Kulikova, V.G. Zaikin, Peoples' Friendship University of Russia, Moscow
m/z	RELATIVE INTENSITY
25	10
26	110
27	721
29	3113
30	130
31	721
36	20
37	40
38	150
39	741
40	100
41	160
42	390
43	661
44	90
45	450
49	30
50	400
51	1381
52	310
53	110
59	1812
60	601
61	520
62	300
63	1381
64	280
65	390
66	40
70	210
72	10
73	430
74	150
75	420
76	110
77	3343
78	761
79	140
84	80
85	70
86	90
87	350
88	611
89	2923
90	871
91	1181
92	130
93	60
95	10
97	90
98	30
99	921
100	40
101	300
102	10
103	10
105	120
106	100
107	971
108	100
109	30
111	50
112	380
113	430
114	150
115	130
117	10
119	230
120	60
121	170
122	10
123	60
124	70
125	7417
126	861
127	2883
128	260
129	180
130	10
135	30
137	10
138	20
139	70
140	180
141	9398
142	1631
143	3213
144	520
145	40
147	50
149	30
153	220
154	1251
155	9929
156	1271
157	3113
158	270
165	40
167	70
168	10
169	80
170	10
171	60
173	10
181	30
182	701
183	110
184	220
185	30
193	30
199	160
200	250
201	70
202	70
228	9999
229	1101
230	3193
231	340
232	20
