Mass Spectrum: Cyclopenta[cd]pyrene
Formula: C18 H10
CAS: 27208-37-3
Molecular weight: 226
Origin: L.WALLCAVE, EPPLEY INST. CANCER, NEBRASKA MED. UNIV. OMAHA U
m/z	RELATIVE INTENSITY
74	80
75	70
86	60
87	100
98	80
99	210
100	200
112	220
113	1230
114	50
174	60
198	130
199	70
200	90
221	60
222	330
223	420
224	1690
225	1190
226	9999
227	1990
228	300
