Mass Spectrum: 2-Propanol, 1-amino-, (R)-
Formula: C3 H9 N O
CAS: 2799-16-8
Molecular weight: 75
Origin: Chuck Anderson, Aldrich Chemical Co.
m/z	RELATIVE INTENSITY
14	10
15	160
18	150
19	114
26	101
27	460
28	1129
29	536
30	9999
31	1394
32	502
38	20
39	97
40	25
41	272
42	544
43	398
44	85
45	913
46	11
52	11
54	26
56	176
57	44
58	40
59	22
60	330
74	36
75	92
