Mass Spectrum: Cyclopentanone, 2,2,4-trimethyl-
Formula: C8 H14 O
CAS: 28056-54-4
Molecular weight: 126
Origin: NIST Mass Spectrometry Data Center, 1990.
m/z	RELATIVE INTENSITY
14	138
15	389
26	157
27	1467
28	1102
29	823
32	129
39	3416
40	832
41	5492
42	1814
43	706
50	158
51	243
52	116
53	520
55	2188
56	9999
57	878
65	162
67	565
69	3510
70	657
71	372
79	121
82	1108
83	1694
84	683
93	881
97	183
108	270
111	2863
112	288
126	2625
127	237
