Mass Spectrum: 1-Methyl-2-methylenecyclohexane
Formula: C8 H14
CAS: 2808-75-5
Molecular weight: 110
Origin: NIST Mass Spectrometry Data Center, 1990.
m/z	RELATIVE INTENSITY
15	226
26	246
27	1519
28	618
29	578
37	85
38	407
39	3947
40	975
41	3790
42	501
43	188
50	526
51	1078
52	553
53	2203
54	1599
55	1998
56	562
62	143
63	360
65	1060
66	1015
67	9999
68	4305
69	1822
70	92
77	1157
78	319
79	1836
80	782
81	6517
82	2890
83	177
91	853
92	107
93	630
94	107
95	7303
96	589
106	100
110	3301
111	289
