Mass Spectrum: 1H-Pyrazole, 3,4-dimethyl-
Formula: C5 H8 N2
CAS: 2820-37-3
Molecular weight: 96
Origin: L.E. Slivon, Battelle Columbus Laboratories, Columbus, Ohio 43201
m/z	RELATIVE INTENSITY
40	2042
41	2785
42	4324
43	409
45	72
47	192
49	336
50	1370
51	1561
52	3123
53	913
54	4759
55	985
56	433
57	24
61	408
62	553
63	769
64	312
65	408
66	769
67	288
68	2282
69	408
81	3386
82	288
93	24
94	408
95	9999
96	8047
97	625
