Mass Spectrum: 1H-1,2,4-Triazole
Formula: C2 H3 N3
CAS: 288-88-0
Molecular weight: 69
Origin: Japan AIST/NIMC Database- Spectrum MS-NW-5086
m/z	RELATIVE INTENSITY
12	109
13	299
14	269
15	20
16	10
24	10
26	119
27	739
28	1279
29	279
33	30
37	10
39	219
40	689
41	509
42	6259
43	139
44	10
52	10
53	30
67	10
68	30
69	9999
70	369
