Mass Spectrum: Naphthalene, 1,3,6,8-tetranitro-
Formula: C10 H4 N4 O8
CAS: 28995-89-3
Molecular weight: 308
Origin: Organic Synthesis Lab, MSU, Moscow.TRC 222
m/z	RELATIVE INTENSITY
40	681
41	140
43	200
44	641
46	130
50	110
51	110
54	100
55	400
56	150
57	330
59	330
61	100
62	420
63	150
64	100
65	100
67	200
69	400
70	170
71	250
72	400
73	390
74	1011
75	601
76	360
77	330
79	110
81	290
82	150
83	240
84	140
85	330
86	1832
87	420
88	340
89	130
90	180
91	150
93	150
95	200
96	240
97	310
98	550
99	540
100	1872
101	350
102	240
103	150
104	170
109	170
110	530
111	811
112	1762
113	240
114	200
115	170
116	430
117	130
118	130
119	110
120	100
121	240
122	460
123	310
124	130
125	120
126	110
127	230
128	971
129	180
130	350
131	150
133	190
135	140
138	100
140	360
141	170
144	240
145	100
146	100
147	130
149	1591
150	330
154	100
155	180
156	591
157	330
158	1912
159	250
167	350
168	150
170	240
171	290
172	100
174	340
175	120
185	150
186	350
187	100
191	150
193	110
202	170
204	240
207	1061
208	290
209	180
216	130
217	250
232	881
233	100
253	140
262	9999
263	1151
264	220
265	100
267	100
270	120
278	180
281	330
282	100
308	410
