Mass Spectrum: Naphthalene, 1,1'-(1,4-butanediyl)bis-
Formula: C24 H22
CAS: 29571-17-3
Molecular weight: 310
Origin: RM-3-4
m/z	RELATIVE INTENSITY
115	2055
127	153
128	460
129	153
139	491
141	9999
142	1196
152	429
153	675
154	797
155	429
165	368
167	859
168	1012
169	521
310	6993
