Mass Spectrum: p-Heptyloxybenzylidene p-butylaniline
Formula: C24 H33 N O
CAS: 29743-12-2
Molecular weight: 351
Origin: NIST Mass Spectrometry Data Center, 1994
m/z	RELATIVE INTENSITY
5	30
17	10
18	90
27	1540
28	362
29	3422
30	95
32	14
38	53
39	759
41	5004
42	469
43	3363
44	101
50	83
51	265
52	90
53	150
54	53
55	1156
56	53
57	2932
58	138
63	154
64	112
65	851
66	76
67	52
69	94
75	41
76	117
77	666
78	267
79	139
82	40
83	110
89	725
90	1251
91	1241
92	104
93	169
94	64
95	77
97	77
102	122
103	307
104	214
105	243
106	145
107	127
112	75
114	31
115	312
116	233
117	197
118	87
119	36
120	70
127	112
128	139
129	66
130	234
131	112
132	120
133	109
139	77
140	69
141	61
142	60
144	46
151	61
152	253
153	196
154	148
155	77
156	31
158	99
159	51
160	163
165	276
166	202
167	422
168	536
169	89
177	46
178	113
180	1015
181	493
182	153
183	255
184	32
190	42
191	102
192	172
193	255
194	159
195	32
196	557
197	126
205	26
206	35
208	172
210	9631
211	1525
212	149
222	276
223	120
224	110
225	27
235	159
236	165
237	44
250	43
251	46
252	316
253	1335
254	390
264	52
266	81
278	36
308	7145
309	1869
310	238
322	43
351	9999
352	2716
353	393
354	37
