Mass Spectrum: 3-Butyn-2-amine, 2-methyl-
Formula: C5 H9 N
CAS: 2978-58-7
Molecular weight: 83
Origin: Japan AIST/NIMC Database- Spectrum MS-IW-2362
m/z	RELATIVE INTENSITY
14	20
15	189
16	10
25	10
26	60
27	139
28	489
29	50
30	90
33	10
36	40
37	99
38	179
39	779
40	269
41	1369
42	1749
43	139
44	10
49	40
50	229
51	449
52	469
53	119
54	40
55	30
56	20
57	20
58	129
61	30
62	50
63	70
64	20
65	249
66	159
67	259
68	9999
69	539
70	10
80	30
82	40
83	10
