Mass Spectrum: Tetrahydrofurfuryl chloride
Formula: C5 H9 Cl O
CAS: 3003-84-7
Molecular weight: 120
Origin: NIST Mass Spectrometry Data Center
m/z	RELATIVE INTENSITY
12	10
13	20
14	140
15	370
18	10
19	10
26	400
27	2302
28	370
29	1511
30	70
31	170
35	30
36	30
37	110
38	210
39	1461
40	370
41	3383
42	1802
43	4914
44	220
45	30
47	30
48	50
49	480
50	170
51	290
52	60
53	290
54	190
55	721
56	60
57	70
60	10
61	60
62	150
63	50
64	40
65	20
67	10
69	50
71	9999
72	420
73	40
75	130
76	30
77	270
78	20
79	120
81	20
83	20
88	10
90	10
119	30
120	80
121	10
122	30
