Mass Spectrum: Sulfoxide, bis(p-chlorophenyl)
Formula: C12 H8 Cl2 O S
CAS: 3085-42-5
Molecular weight: 270
Origin: Japan AIST/NIMC Database- Spectrum MS-NW-9397
m/z	RELATIVE INTENSITY
26	20
27	70
28	80
32	40
34	10
35	20
36	169
37	60
38	149
39	259
40	10
41	10
43	20
44	70
45	389
46	10
47	30
48	20
49	80
50	1569
51	839
52	40
53	10
55	10
57	40
58	109
59	10
60	20
61	179
62	169
63	679
64	109
65	50
69	499
70	90
71	70
72	30
73	559
74	859
75	3869
76	679
77	189
78	30
79	139
80	10
81	109
82	219
83	40
84	119
85	449
86	80
87	299
88	20
89	90
90	10
91	349
92	119
93	129
94	40
95	169
96	169
97	70
98	50
99	1979
100	149
101	649
102	50
103	10
105	40
106	40
107	209
108	3099
109	639
110	319
111	1959
112	559
113	619
114	139
115	149
116	10
117	50
118	40
120	20
121	10
122	10
123	30
124	90
125	60
126	99
127	3389
128	269
129	1069
130	119
131	1099
132	90
133	419
134	30
135	20
136	99
137	40
138	80
139	339
140	60
141	10
142	129
143	9999
144	859
145	3709
146	299
147	159
148	20
149	70
150	129
151	259
152	1399
153	179
154	10
155	50
156	129
157	40
158	70
159	2179
160	189
161	799
162	80
163	40
164	10
168	10
169	10
170	20
171	209
172	239
173	109
174	20
175	80
176	10
177	20
181	20
182	109
183	369
184	1859
185	289
186	349
187	119
188	90
189	40
194	20
196	10
199	10
200	129
201	20
202	20
204	10
205	20
206	20
207	199
208	30
209	90
210	10
211	10
216	10
217	70
218	709
219	509
220	319
221	189
222	5939
223	799
224	3809
225	499
226	629
227	80
228	10
234	40
235	259
236	50
237	99
238	20
239	10
241	10
242	40
243	10
244	30
252	40
253	50
254	1669
255	269
256	1129
257	159
258	209
259	30
260	10
270	4369
271	629
272	3039
273	429
274	609
275	80
276	20
