Mass Spectrum: 2,3,4-Tribromothiophene
Formula: C4 H Br3 S
CAS: 3141-25-1
Molecular weight: 318
Origin: Japan AIST/NIMC Database- Spectrum MS-IW-7376
m/z	RELATIVE INTENSITY
12	30
24	20
25	30
28	149
32	119
36	229
37	999
38	30
44	269
45	989
46	30
47	40
48	80
49	379
50	10
56	109
57	119
58	10
68	109
69	149
70	10
76	20
79	419
80	869
81	3089
82	199
83	119
91	139
93	129
94	10
96	10
103	30
104	30
105	30
106	30
111	30
113	30
115	199
116	309
117	209
118	299
119	60
120	109
121	60
123	169
125	179
127	30
128	119
129	20
130	119
135	199
136	20
137	209
138	20
139	10
147	30
149	40
158	30
159	389
160	3969
161	899
162	3719
163	199
164	149
175	20
177	20
182	20
184	30
186	10
194	70
195	259
196	139
197	499
198	80
199	249
216	20
218	10
238	10
239	2179
240	139
241	4359
242	259
243	2269
244	119
245	90
254	10
255	10
256	20
257	10
258	10
273	30
275	90
277	90
279	30
318	3379
319	179
320	9989
321	529
322	9999
323	529
324	3519
325	179
326	139
