Mass Spectrum: Hydrazine, (1,1-dimethylethyl)-
Formula: C4 H12 N2
CAS: 32064-67-8
Molecular weight: 88
Origin: Japan AIST/NIMC Database- Spectrum MS-NW-6939
m/z	RELATIVE INTENSITY
14	20
15	599
16	40
17	16
18	82
26	90
27	679
28	1109
29	2819
30	459
31	649
32	9999
33	199
39	909
40	179
41	3179
42	749
43	129
44	60
45	50
49	10
50	50
51	60
52	50
53	90
54	139
55	299
56	3079
57	2349
58	379
59	20
68	20
69	10
70	20
71	30
72	40
73	2839
74	129
88	1749
89	109
