Mass Spectrum: Benzeneacetonitrile, 2,3,6-trichloro-
Formula: C8 H4 Cl3 N
CAS: 3215-65-4
Molecular weight: 219
Origin: NIST Mass Spectrometry Data Center
m/z	RELATIVE INTENSITY
12	80
13	40
14	50
19	50
24	40
25	60
26	180
35	540
36	470
37	1391
38	881
39	581
40	300
41	30
43	190
47	500
48	290
49	931
50	1231
51	500
52	130
54	40
56	591
60	971
61	2032
62	1752
63	921
64	400
65	70
66	40
72	781
73	2092
74	1661
75	1151
76	300
77	60
78	250
79	160
80	130
82	60
83	300
84	981
85	1141
86	1341
87	1451
88	931
89	100
91	450
92	280
94	120
95	150
96	490
97	921
98	701
99	480
100	280
101	40
106	60
107	561
108	631
109	851
110	540
111	581
112	540
114	931
115	100
118	150
119	70
120	200
121	510
122	440
123	611
124	360
125	150
126	70
130	20
131	130
132	80
133	270
134	90
135	130
136	30
137	50
142	30
143	170
144	160
145	160
146	140
148	5325
149	1021
150	1672
151	300
155	80
157	1952
158	561
159	1301
160	330
161	220
162	60
167	50
169	70
171	40
180	50
184	9999
185	2082
186	6726
187	851
188	1141
189	110
191	170
192	140
193	370
194	160
195	250
196	80
197	80
219	6236
220	1071
221	5745
222	701
223	1942
224	180
225	220
