Mass Spectrum: Myristyl myristate
Formula: C28 H56 O2
CAS: 3234-85-3
Molecular weight: 424
Origin: EP-1286
m/z	RELATIVE INTENSITY
26	50
27	300
28	280
29	1300
30	40
31	30
32	50
36	20
37	10
38	20
39	280
40	80
41	3200
42	1100
43	7499
44	290
45	90
47	10
48	10
50	30
51	20
52	10
53	150
54	600
55	5299
56	2600
57	8499
58	430
59	110
60	1100
61	1700
62	70
63	40
64	60
65	30
66	70
67	840
68	1400
69	4700
70	2700
71	4900
72	280
73	1800
74	200
75	40
76	10
77	30
78	20
79	120
80	90
81	660
82	2200
83	4800
84	2600
85	3200
86	220
87	460
88	60
89	80
90	20
91	40
92	10
93	80
94	50
95	540
96	1100
97	4200
98	2100
99	650
100	100
101	360
102	90
103	80
104	10
105	20
106	10
107	50
108	30
109	280
110	490
111	2400
112	1200
113	390
114	80
115	420
116	400
117	80
118	10
119	30
120	30
121	90
122	40
123	150
124	290
125	1200
126	730
127	250
128	40
129	1000
130	150
131	40
132	10
133	10
134	10
135	70
136	20
137	60
138	170
139	500
140	460
141	150
142	40
143	230
144	60
145	40
146	10
147	10
148	10
149	60
150	40
151	50
152	90
153	270
154	290
155	90
156	20
157	90
158	30
159	20
160	10
161	10
162	10
163	20
164	30
165	20
166	180
167	190
168	1200
169	200
170	30
171	180
172	30
173	20
176	10
177	10
178	10
179	10
180	10
181	30
182	20
183	20
184	10
185	630
186	90
187	20
188	10
189	10
190	10
191	70
192	40
193	30
194	50
195	40
196	2700
197	510
198	60
199	130
200	30
201	10
207	10
208	60
209	100
210	50
211	1700
212	270
213	60
214	10
219	10
223	10
225	10
226	40
227	110
228	1700
229	9999
230	1700
231	170
232	20
237	10
238	10
239	20
240	10
241	350
242	60
243	10
251	10
253	10
255	20
256	70
257	110
258	20
259	10
265	10
266	20
267	10
269	120
270	10
279	10
283	20
284	80
285	20
297	20
298	20
299	10
311	20
312	10
325	30
326	10
352	10
353	10
381	20
382	10
424	580
425	200
426	30
