Mass Spectrum: 2-Acetyl-3-ethylpyrazine
Formula: C8 H10 N2 O
CAS: 32974-92-8
Molecular weight: 150
Origin: NIST Mass Spectrometry Data Center, 1994
m/z	RELATIVE INTENSITY
15	133
26	198
27	396
38	813
39	4643
40	1144
41	2027
42	2331
43	115
50	582
51	1671
52	1786
53	2463
54	1526
56	1604
65	902
66	1006
67	1432
93	1156
94	1333
107	870
108	559
121	851
122	1119
134	489
135	9999
136	1836
149	6454
150	6742
151	567
