Mass Spectrum: trans-11-Tetradecenyl acetate
Formula: C16 H30 O2
CAS: 33189-72-9
Molecular weight: 254
Origin: NIST Mass Spectrometry Data Center, 1998.
m/z	RELATIVE INTENSITY
14	10
15	90
26	30
27	490
28	160
29	1000
30	40
31	70
37	10
38	20
39	1130
40	250
41	7529
42	1420
43	9339
44	280
45	70
50	20
51	90
52	70
53	970
54	3080
55	8409
56	1460
57	860
58	80
59	20
60	20
61	1540
62	40
63	20
65	240
66	460
67	6819
68	9289
69	5289
70	770
71	300
72	40
73	370
74	20
77	170
78	50
79	620
80	380
81	6019
82	9999
83	2550
84	280
85	90
86	40
87	30
91	80
92	10
93	190
94	210
95	4600
96	5599
97	1210
98	150
99	20
100	30
101	20
105	10
107	60
108	90
109	2200
110	2110
111	410
112	100
113	20
114	20
115	10
116	10
121	40
122	90
123	1100
124	1110
125	160
126	40
127	10
128	20
129	10
135	20
136	50
137	630
138	710
139	80
140	10
141	10
142	10
149	10
150	10
151	220
152	260
153	30
165	120
166	250
167	40
179	10
194	1220
195	190
196	10
211	10
