Mass Spectrum: Ethanone, 2-(dimethylamino)-1-phenyl-
Formula: C10 H13 N O
CAS: 3319-03-7
Molecular weight: 163
m/z	RELATIVE INTENSITY
41	130
42	881
43	240
44	120
45	10
51	440
52	190
53	10
58	9999
59	290
71	160
72	10
77	540
78	30
105	240
106	20
120	50
121	10
162	20
163	120
164	10
