Mass Spectrum: 1,3-Dioxolane, 2-propyl-
Formula: C6 H12 O2
CAS: 3390-13-4
Molecular weight: 116
Origin: D.H.WILLIAMS CHEMISTRY DEPT., UNIVERSITY OF CAMBRIDGE
m/z	RELATIVE INTENSITY
26	200
27	1100
28	400
29	500
31	300
39	500
41	800
42	200
43	900
44	300
45	3000
46	100
53	80
54	80
55	300
56	200
57	300
58	100
60	50
71	1000
72	200
73	9999
74	800
86	300
88	200
99	100
115	480
116	100
