Mass Spectrum: 1-Hexene, 3,3-dimethyl-
Formula: C8 H16
CAS: 3404-77-1
Molecular weight: 112
Origin: NIST Mass Spectrometry Data Center, 1990.
m/z	RELATIVE INTENSITY
15	139
26	172
27	1449
28	476
29	751
39	2592
40	639
41	6206
42	622
43	914
44	100
50	198
51	501
52	227
53	1346
54	100
55	5691
56	1922
57	673
63	121
65	308
67	1303
69	9999
70	3512
71	204
77	185
79	198
81	120
83	904
84	824
85	245
97	845
112	293
