Mass Spectrum: 2,2-Dimethoxybutane
Formula: C6 H14 O2
CAS: 3453-99-4
Molecular weight: 118
Origin: TNO Volatile Compounds in Food - Chemical Concepts
m/z	RELATIVE INTENSITY
24	26
25	404
27	2514
29	5603
30	492
31	1881
33	161
34	41
36	44
38	80
39	1317
40	2701
41	2425
42	917
43	9507
44	633
45	3514
46	29
47	1194
49	66
50	45
51	89
52	160
53	444
54	202
55	8176
56	800
57	1806
58	152
59	817
60	74
62	47
63	72
65	114
71	683
72	111
73	32
74	50
75	48
76	39
81	28
82	18
83	19
84	14
85	354
86	747
87	9999
88	400
89	8222
90	348
91	624
92	467
93	24
103	934
104	82
105	26
