Mass Spectrum: Propane, 1-(2,4,6-tribromophenoxy)-2,3-dibromo-
Formula: C9 H7 Br5 O
CAS: 35109-60-5
Molecular weight: 526
Origin: J.E. WILKINSON S-CUBED, SAN DIEGO, CA.
m/z	RELATIVE INTENSITY
49	213
50	460
51	240
52	7
53	774
55	76
56	3
57	5
60	196
61	3753
62	8558
63	1201
64	6
65	12
69	57
73	728
74	2813
75	739
76	77
77	109
79	181
80	79
81	177
82	77
84	5
86	3
89	37
90	222
91	127
92	6
93	1450
94	5
95	1338
101	23
102	216
103	91
104	17
105	86
106	46
107	84
108	5
109	2
115	9
116	184
117	195
118	266
119	6836
120	170
121	6368
122	109
128	14
129	5
130	27
131	207
132	4
140	223
141	3890
142	520
143	3775
144	124
152	35
153	483
154	183
155	546
156	77
157	7
169	42
170	109
171	139
172	95
173	152
175	34
180	7
181	1
182	21
183	15
184	8
185	19
195	133
196	21
197	424
199	3238
200	27
201	5785
202	60
203	2709
204	9
209	157
210	227
211	181
212	194
219	29
220	367
221	263
222	919
223	419
224	363
225	88
232	74
233	27
234	319
235	54
236	151
237	5
238	1
248	258
249	24
250	705
251	70
252	297
253	15
262	30
264	67
266	11
287	21
288	8
289	117
290	32
291	80
292	6
293	2
299	321
301	1318
302	7
303	1271
304	7
305	277
313	16
315	18
327	114
328	3407
329	792
330	9999
331	1174
332	9682
333	652
334	3069
335	62
343	5
345	2
370	27
372	25
451	2
527	1
529	10
530	1
531	11
