Mass Spectrum: n-Hexylmethylamine
Formula: C7 H17 N
CAS: 35161-70-7
Molecular weight: 115
Origin: NIST Mass Spectrometry Data Center, 1994
m/z	RELATIVE INTENSITY
14	7
15	105
18	122
26	54
27	452
28	504
29	462
30	324
31	136
32	55
37	7
39	328
40	64
41	498
42	455
43	7
44	9999
45	270
50	9
51	21
52	12
53	44
54	44
55	150
56	147
57	115
58	191
59	37
65	7
67	17
68	26
69	18
70	60
71	8
72	10
80	4
83	5
84	10
86	35
100	30
115	542
116	52
