Mass Spectrum: 3-Octenoic acid, methyl ester, (E)-
Formula: C9 H16 O2
CAS: 35234-16-3
Molecular weight: 156
m/z	RELATIVE INTENSITY
27	2510
29	1434
39	2390
41	5975
43	3406
53	1016
54	2012
55	9999
56	1255
59	6234
67	2390
71	2629
74	7927
75	518
82	6294
83	2589
85	1832
87	956
96	3386
97	2231
101	319
113	518
114	598
124	3944
125	538
156	359
