Mass Spectrum: Octanoic acid, 5-(acetyloxy)-, ethyl ester
Formula: C12 H22 O4
CAS: 35234-25-4
Molecular weight: 230
m/z	RELATIVE INTENSITY
43	9999
55	1135
71	737
81	438
82	398
88	1852
95	418
98	2111
111	717
112	418
123	359
141	458
143	1135
145	1832
158	319
159	199
170	279
