Mass Spectrum: Benzamide, 3-amino-
Formula: C7 H8 N2 O
CAS: 3544-24-9
Molecular weight: 136
Origin: NIST Mass Spectrometry Data Center, 1990.
m/z	RELATIVE INTENSITY
17	211
27	189
28	570
37	326
38	789
39	1960
40	373
41	736
42	183
43	125
44	634
46	284
49	140
50	328
51	330
52	706
53	325
54	399
60	153
61	296
62	567
63	1259
64	1225
65	5306
66	1112
74	196
75	199
76	225
80	487
81	184
89	106
90	382
91	1328
92	7897
93	847
107	202
117	125
118	654
119	191
120	7250
121	578
136	9999
137	793
