Mass Spectrum: 2,4-Dichlorobenzyl mercaptan
Formula: C7 H6 Cl2 S
CAS: 36480-40-7
Molecular weight: 192
Origin: NIST Mass Spectrometry Data Center, 1994
m/z	RELATIVE INTENSITY
18	39
25	44
26	170
27	127
28	181
32	232
33	828
34	152
35	260
36	139
37	472
38	453
39	844
40	37
43	166
44	142
45	2840
46	192
47	469
48	57
49	392
50	815
51	473
52	48
57	51
58	81
59	56
60	791
61	704
62	1211
63	1668
64	138
68	35
69	408
70	59
71	115
72	273
73	1058
74	673
75	921
76	91
77	271
78	181
79	117
80	26
81	87
82	49
83	107
84	305
85	468
86	480
87	502
88	164
89	1704
90	146
92	49
93	221
94	74
95	77
96	171
97	496
98	75
99	446
100	26
101	98
103	39
105	43
106	24
107	164
108	71
109	380
110	104
111	346
112	122
113	96
114	27
117	56
119	116
120	100
121	218
122	24
123	2011
124	672
125	739
126	257
127	62
131	22
133	404
134	28
135	258
137	41
145	53
146	79
147	37
148	59
154	72
155	190
156	108
157	168
158	37
159	9999
160	849
161	6395
162	522
163	1040
164	91
192	2504
193	217
194	1763
195	149
196	345
197	27
