Mass Spectrum: Benzene, 1,3-bis(1-methylethenyl)-
Formula: C12 H14
CAS: 3748-13-8
Molecular weight: 158
Origin: NIST Mass Spectrometry Data Center, 1994
m/z	RELATIVE INTENSITY
12	12
13	20
15	660
24	8
26	198
27	1588
28	189
29	157
30	5
37	105
38	437
39	3867
40	454
41	1951
42	77
43	49
44	4
45	9
48	8
50	1107
51	2284
52	493
53	376
54	16
55	26
56	17
58	323
61	144
62	588
63	1761
64	831
65	1205
66	123
67	25
68	9
70	216
72	12
74	557
75	714
76	783
77	1717
78	998
79	279
80	51
81	10
84	8
85	60
86	194
87	335
88	187
89	905
90	8
91	1742
92	187
93	19
94	4
97	19
98	100
99	54
100	43
101	208
102	828
103	1139
104	150
105	69
106	6
109	11
110	38
111	40
113	168
115	5281
116	1255
117	3489
118	2994
119	306
120	10
121	5
122	9
123	7
124	7
127	1640
128	6872
129	2077
130	373
131	196
132	23
134	4
137	14
138	14
139	279
140	4
141	1176
142	1188
143	4002
144	522
145	32
149	5
150	11
151	46
152	90
153	88
154	28
155	75
158	9999
159	1299
160	96
