Mass Spectrum: Benzenemethanol, 3,4,5-trimethoxy-
Formula: C10 H14 O4
CAS: 3840-31-1
Molecular weight: 198
Origin: Japan AIST/NIMC Database- Spectrum MS-NW-6103
m/z	RELATIVE INTENSITY
14	40
15	589
16	10
18	10
26	50
27	379
28	399
29	339
30	40
31	279
32	40
33	10
37	70
38	249
39	849
40	119
41	659
42	60
43	199
44	40
45	219
46	10
47	20
48	10
49	40
50	279
51	459
52	329
53	659
54	90
55	339
56	50
57	199
58	30
59	199
60	10
61	50
62	119
63	209
64	119
65	439
66	339
67	399
68	189
69	349
70	40
71	99
72	10
73	10
74	50
75	90
76	80
77	629
78	179
79	269
80	209
81	629
82	189
83	299
84	60
85	60
86	10
87	10
88	20
89	149
90	60
91	80
92	109
93	409
94	179
95	1649
96	269
97	479
98	40
99	30
101	10
103	10
104	30
105	139
106	90
107	209
108	279
109	319
110	219
111	449
112	229
113	40
114	10
118	20
119	40
120	80
121	149
122	139
123	1299
124	409
125	449
126	149
127	2779
128	239
129	20
130	10
131	10
132	20
133	30
134	30
135	109
136	189
137	329
138	419
139	379
140	509
141	60
142	10
144	10
145	10
146	10
147	10
148	169
149	60
150	40
151	459
152	209
153	139
154	269
155	949
156	90
157	20
163	10
164	10
165	109
166	70
167	399
168	90
169	479
170	60
171	10
178	10
179	20
180	20
181	739
182	259
183	1839
184	209
185	30
195	50
196	319
197	199
198	9999
199	1119
200	159
201	10
