Mass Spectrum: Butane, 1,1-diethoxy-3-methyl-
Formula: C9 H20 O2
CAS: 3842-03-3
Molecular weight: 160
m/z	RELATIVE INTENSITY
27	1651
28	1361
29	3573
30	170
31	1742
41	2963
42	390
43	3673
44	981
45	3493
46	470
47	6766
55	450
56	130
57	1031
58	270
59	1571
60	70
61	130
69	3423
70	350
71	6486
72	500
73	450
75	5375
83	100
85	280
86	140
87	751
99	2222
103	9999
114	871
115	4124
131	40
159	30
