Mass Spectrum: 1,1'-Biphenyl, 2,3',5-trichloro-
Formula: C12 H7 Cl3
CAS: 38444-81-4
Molecular weight: 256
Origin: T.L.Hayes, Battelle Columbus Laboratories, Columbus, OH 43221
m/z	RELATIVE INTENSITY
33	18
34	22
35	105
36	311
37	230
38	334
39	339
40	309
42	7
43	23
44	62
47	69
49	318
50	1080
51	837
52	74
55	60
56	45
57	15
58	13
59	6
60	179
61	867
62	1314
63	673
64	36
67	94
68	63
69	31
71	27
72	124
73	919
74	2412
75	5686
77	200
78	39
79	200
80	537
81	190
82	26
84	322
85	658
86	730
87	570
88	89
89	42
92	1697
93	4306
94	1429
96	99
97	619
98	1199
99	1312
100	330
101	265
102	61
103	20
104	14
105	18
107	41
108	162
109	452
110	2941
111	2419
112	445
113	273
114	48
115	100
116	78
117	33
118	6
119	46
120	109
121	165
122	345
123	617
124	265
125	525
126	226
127	13
128	956
129	927
130	327
131	70
132	52
133	87
134	101
135	225
136	239
137	144
138	91
139	29
144	19
145	64
146	129
147	187
148	201
149	796
150	3883
151	2912
152	355
153	20
156	13
157	26
158	9
159	136
160	341
161	102
162	125
163	41
170	144
171	36
172	102
173	34
174	14
181	20
182	21
183	70
184	258
185	607
186	9824
187	1440
188	3328
189	431
190	27
191	10
193	24
194	71
195	35
196	101
197	24
198	42
199	6
200	11
207	65
208	26
209	20
220	483
221	196
222	342
223	133
224	75
225	19
230	7
232	7
256	9999
257	1378
258	9634
259	1266
260	3000
261	412
262	337
263	41
