Mass Spectrum: 1,4-Bis-(vinyloxy)-butane
Formula: C8 H14 O2
CAS: 3891-33-6
Molecular weight: 142
Origin: James Little,Eastman Chem.Co.,Kingsport,TN
m/z	RELATIVE INTENSITY
27	3173
28	4664
29	5315
31	2803
39	2122
41	3333
42	2192
43	5035
44	1561
45	1181
53	841
55	9869
56	891
57	9999
58	540
67	260
69	1011
70	1121
71	1271
72	230
79	400
81	1081
83	260
85	1291
86	110
97	150
98	4724
99	2212
100	180
101	3273
102	210
114	110
