Mass Spectrum: Benzoic acid, 4,4'-sulfonylbis-, dimethyl ester
Formula: C16 H14 O6 S
CAS: 3965-53-5
Molecular weight: 334
Origin: Japan AIST/NIMC Database- Spectrum MS-NW-7285
m/z	RELATIVE INTENSITY
15	179
18	20
27	10
28	50
29	40
30	10
31	30
38	30
39	119
41	40
44	20
45	50
50	719
51	179
52	40
53	50
55	10
58	10
59	349
62	30
63	179
64	149
65	129
66	10
67	20
69	50
70	90
71	10
73	10
74	209
75	679
76	1359
77	429
78	50
79	50
80	20
81	10
82	20
84	10
85	10
86	10
87	10
89	20
90	10
91	50
92	249
93	40
95	80
96	109
97	30
98	10
99	10
100	10
101	20
102	10
103	459
104	1079
105	139
106	10
107	60
108	70
109	30
110	10
111	30
112	10
113	10
114	10
115	30
118	10
119	229
120	339
121	129
122	30
123	99
124	229
125	60
126	30
127	70
128	20
129	10
134	60
135	779
136	1079
137	90
138	20
139	189
140	50
141	20
149	10
150	60
151	249
152	869
153	119
154	40
155	279
156	20
157	20
159	10
160	10
165	40
166	30
167	70
168	169
169	289
170	30
171	50
172	10
179	40
180	20
181	10
182	10
183	9999
184	1009
185	569
186	50
187	20
188	10
195	40
196	30
197	10
199	70
200	10
210	20
211	20
212	20
215	10
216	10
226	10
239	60
240	10
244	90
245	20
259	10
270	10
271	10
275	20
276	70
277	10
289	99
290	40
291	10
301	10
302	10
303	2729
304	489
305	189
306	30
333	70
334	2059
335	389
336	149
337	20
