Mass Spectrum: p-Pentyloxybenzylidene p-hexylaniline
Formula: C24 H33 N O
CAS: 39777-13-4
Molecular weight: 351
Origin: NIST Mass Spectrometry Data Center, 1994
m/z	RELATIVE INTENSITY
18	90
27	1134
28	193
29	1905
30	37
32	8
39	545
41	2412
42	292
43	5157
44	155
50	41
51	168
52	59
53	109
54	41
55	490
56	54
57	163
63	105
64	83
65	557
66	73
67	39
69	105
71	59
76	81
77	539
78	225
79	100
82	24
84	53
85	25
89	491
90	1092
91	771
92	92
93	123
94	44
96	55
102	84
103	287
104	202
105	214
106	137
107	87
115	243
116	213
117	180
118	61
119	35
120	53
127	79
128	98
129	79
130	196
131	71
132	96
139	57
140	54
141	50
142	58
144	53
151	71
152	231
153	148
154	118
155	60
165	195
166	171
167	265
168	297
169	67
177	53
178	114
179	104
180	865
181	450
182	92
183	232
184	31
186	63
188	78
190	26
191	92
192	115
193	190
194	166
195	26
196	376
197	112
198	32
206	55
207	42
208	131
209	32
210	7627
211	1141
212	125
220	38
222	268
223	100
224	103
236	111
237	33
238	25
252	30
263	34
278	26
280	9732
281	2546
282	372
283	37
293	28
294	56
308	57
351	9999
352	2731
353	382
354	42
