Mass Spectrum: Acetic acid, (1-methyl-2(1H)-pyridinylidene)-, methyl ester
Formula: C9 H11 N O2
CAS: 39998-21-5
Molecular weight: 165
m/z	RELATIVE INTENSITY
39	863
40	118
41	314
42	549
50	314
51	784
52	510
53	706
54	157
55	118
63	78
64	431
65	392
66	588
67	274
68	235
69	78
77	1137
78	1961
79	902
80	235
82	78
91	431
92	353
93	235
94	118
104	471
105	235
106	1294
107	4784
108	392
118	118
119	274
122	471
123	118
134	9999
135	902
136	118
165	5490
166	549
