Mass Spectrum: 1H-Tetrazole, 5-methyl-
Formula: C2 H4 N4
CAS: 4076-36-2
Molecular weight: 84
m/z	RELATIVE INTENSITY
27	7707
28	2702
29	3503
30	200
38	500
39	500
40	701
41	601
42	2202
43	601
44	100
53	400
54	200
55	2202
56	9999
57	400
84	1001
85	100
