Mass Spectrum: N-Propionylimidazole
Formula: C6 H8 N2 O
CAS: 4122-52-5
Molecular weight: 124
Origin: NIST Mass Spectrometry Data Center
m/z	RELATIVE INTENSITY
13	80
14	330
15	300
16	50
18	30
25	180
26	1712
27	5035
28	3984
29	9999
30	280
31	90
32	130
37	110
38	671
39	1501
40	6116
41	3373
42	1171
43	140
44	60
48	50
50	20
51	180
52	410
53	260
54	340
55	661
56	1091
57	8257
58	300
65	30
66	160
67	1081
68	7237
69	9348
70	460
79	20
81	300
82	40
95	921
96	3873
97	230
124	2973
125	230
