Mass Spectrum: 1,3-Cyclopentadiene, 5,5-dimethyl-
Formula: C7 H10
CAS: 4125-18-2
Molecular weight: 94
Origin: Chemical Concepts
m/z	RELATIVE INTENSITY
26	76
27	696
29	68
31	23
37	75
38	208
39	1175
40	194
41	336
42	43
43	23
44	18
45	23
46	50
49	38
50	400
51	984
52	438
53	618
54	161
55	107
61	39
62	99
63	173
64	11
65	405
66	259
67	114
71	6
73	16
74	153
75	70
76	34
77	4660
78	849
79	9999
80	743
89	33
91	1670
92	130
93	1781
94	3476
95	234
