Mass Spectrum: N-tert-Octylacrylamide
Formula: C11 H21 N O
CAS: 4223-03-4
Molecular weight: 183
Origin: NIST Mass Spectrometry Data Center, 1994
m/z	RELATIVE INTENSITY
15	274
17	25
18	110
27	2012
29	1011
30	141
39	734
41	1985
42	1148
43	491
44	125
45	15
51	44
52	43
53	246
54	15
55	4813
56	716
57	2107
58	9999
59	374
65	34
66	18
67	82
68	50
69	179
70	74
71	18
72	2130
73	86
77	28
79	57
80	21
81	63
82	89
83	91
84	84
85	21
95	18
97	2135
98	250
99	16
110	49
112	9917
113	740
114	596
115	54
126	389
127	51
128	17
168	305
169	32
