Mass Spectrum: 5-Hydroxy-2-nitrobenzaldehyde
Formula: C7 H5 N O4
CAS: 42454-06-8
Molecular weight: 167
Origin: Japan AIST/NIMC Database- Spectrum MS-NW-6558
m/z	RELATIVE INTENSITY
12	40
13	30
14	149
15	80
16	70
18	10
24	30
25	179
26	579
27	2389
28	1079
29	1619
30	1619
31	189
32	70
36	149
37	1139
38	2159
39	9219
40	429
41	259
42	439
43	269
44	279
45	199
46	109
48	60
49	379
50	1509
51	1979
52	1919
53	6099
54	569
55	1449
56	70
57	40
59	10
60	209
61	1169
62	2819
63	7469
64	2929
65	4749
66	899
67	1179
68	659
69	4539
70	209
71	139
72	40
73	279
74	889
75	729
76	209
77	339
78	199
79	329
80	869
81	9999
82	609
83	50
84	20
85	60
86	70
87	60
88	30
89	40
90	189
91	619
92	6579
93	1129
94	169
95	619
96	129
97	30
99	20
100	10
101	10
102	20
103	20
104	40
105	60
106	539
107	369
108	599
109	7479
110	469
111	60
112	20
113	10
118	20
119	80
120	4069
121	379
122	90
123	1769
124	169
125	20
128	10
132	20
134	10
135	99
136	30
137	8299
138	719
139	80
140	10
149	279
150	479
151	60
152	10
164	10
165	10
166	40
167	3269
168	289
169	50
