Mass Spectrum: Pentane, 2-chloro-2-methyl-
Formula: C6 H13 Cl
CAS: 4325-48-8
Molecular weight: 120
Origin: NIST Mass Spectrometry Data Center, 1990.
m/z	RELATIVE INTENSITY
15	328
26	238
27	1896
28	206
29	1171
35	192
36	432
37	209
38	669
39	4044
40	1025
41	9999
42	1237
43	4957
44	197
49	218
50	383
51	615
52	200
53	1137
54	325
55	2508
56	6241
57	1253
61	150
62	153
63	625
65	385
66	111
67	653
69	9073
70	497
76	2781
77	5510
78	1050
79	1776
84	5079
85	5107
86	320
91	180
105	304
