Mass Spectrum: 3-Hydroxy-4-methoxybenzyl alcohol
Formula: C8 H10 O3
CAS: 4383-06-6
Molecular weight: 154
Origin: NIST Mass Spectrometry Data Center
m/z	RELATIVE INTENSITY
14	20
15	230
19	10
25	10
26	100
27	520
28	100
29	811
30	70
31	450
32	10
33	20
36	20
37	140
38	430
39	2172
40	330
41	561
42	140
43	380
44	20
45	60
46	20
47	20
48	10
49	90
50	871
51	1782
52	1211
53	2022
54	561
55	2242
56	130
57	60
58	10
59	30
60	20
61	170
62	440
63	891
64	360
65	6546
66	1351
67	500
68	110
69	170
70	20
71	40
72	10
73	30
74	150
75	190
76	130
77	1361
78	320
79	831
80	380
81	1251
82	781
83	991
84	70
85	30
86	20
87	10
89	60
90	150
91	170
92	200
93	7166
94	2823
95	1471
96	130
97	150
98	10
103	10
104	120
105	500
106	240
107	741
108	621
109	861
110	901
111	1281
112	90
113	10
118	270
119	250
120	50
121	961
122	3283
123	1812
124	220
125	3283
126	260
127	20
133	10
135	791
136	430
137	4144
138	581
139	520
140	40
151	440
152	170
153	1451
154	9999
155	901
156	100
157	10
