Mass Spectrum: Benzofurazan, 5-methoxy-
Formula: C7 H6 N2 O2
CAS: 4413-48-3
Molecular weight: 150
Origin: J. F. SMITH, LA TROBE UNIVERSITY, AUSTRALIA
m/z	RELATIVE INTENSITY
15	1500
17	700
18	2100
26	1100
27	500
28	700
30	1500
37	700
38	1300
39	1700
50	1500
51	1600
52	1800
53	1200
62	800
63	1900
64	900
65	2100
66	1300
75	500
76	1100
77	2700
78	500
79	1300
80	2300
90	1400
92	1300
93	800
105	1000
120	4200
150	9999
151	1000
