Mass Spectrum: Cyclobutanecarbonitrile
Formula: C5 H7 N
CAS: 4426-11-3
Molecular weight: 81
Origin: NIST Mass Spectrometry Data Center, 1994
m/z	RELATIVE INTENSITY
12	84
13	83
14	168
15	201
17	11
24	43
25	223
26	2732
27	3062
28	6327
29	280
32	5
36	52
37	442
38	636
39	1766
40	269
41	1865
42	102
48	31
49	175
50	505
51	932
52	1173
53	1126
54	9999
55	469
61	23
62	35
63	59
64	175
65	55
66	308
67	17
78	20
80	1003
81	79
82	19
