Mass Spectrum: 2-Cyclohexen-1-one, 4,4-diphenyl-
Formula: C18 H16 O
CAS: 4528-64-7
Molecular weight: 248
Origin: Chuck Anderson, Aldrich Chemical Co.
m/z	RELATIVE INTENSITY
26	92
27	443
28	178
29	62
32	16
38	44
39	584
40	61
41	120
42	55
50	227
51	728
52	143
53	82
55	273
62	180
63	696
64	115
65	659
66	68
67	28
68	22
69	227
74	195
75	282
76	348
77	1071
78	253
79	44
81	221
82	887
83	529
86	97
87	195
88	296
89	737
90	56
91	4469
92	371
94	262
95	1428
96	630
98	32
99	30
100	55
101	385
102	354
103	544
104	120
105	241
108	15
109	80
110	136
111	9
113	221
114	213
115	2649
116	417
117	154
118	16
126	158
127	469
128	2949
129	1727
130	164
131	115
137	34
138	9
139	455
140	32
141	817
142	466
143	748
144	110
150	109
151	158
152	590
153	177
154	81
157	39
162	35
163	394
164	276
165	2557
166	316
167	69
169	133
171	195
176	224
177	77
178	783
179	368
180	87
187	135
188	102
189	1912
190	806
191	3732
192	1117
193	180
200	26
201	66
202	400
203	748
204	469
205	2303
206	9999
207	1509
208	123
215	85
217	8
218	44
219	2038
220	1117
221	172
233	28
247	146
248	1105
249	204
