Mass Spectrum: Ethanol, 2-nitro-, nitrate (ester)
Formula: C2 H4 N2 O5
CAS: 4528-34-1
Molecular weight: 136
Origin: MINISTRY OF TECH., E.R.D.E., WALTHAM ABBEY, UK
m/z	RELATIVE INTENSITY
15	790
27	960
28	680
29	1690
30	2920
31	110
42	380
43	920
44	830
45	210
46	9999
58	60
60	20
62	100
73	60
76	180
90	40
106	250
135	10
