Mass Spectrum: Normorphine
Formula: C16 H17 N O3
CAS: 466-97-7
Molecular weight: 271
Origin: NIST Mass Spectrometry Data Center
m/z	RELATIVE INTENSITY
15	110
18	280
19	30
20	30
26	80
27	911
28	1581
29	851
30	1712
31	270
36	20
37	20
38	180
39	1722
40	300
41	1231
42	1131
43	951
44	631
45	1772
46	130
50	350
51	1331
52	520
53	1301
54	571
55	1762
56	1431
57	510
58	360
59	50
61	40
62	220
63	961
64	460
65	1471
66	460
67	891
68	1081
69	591
70	360
71	150
72	180
73	270
74	270
75	571
76	621
77	2913
78	1061
79	821
80	2462
81	6396
82	2282
83	530
84	370
85	90
86	190
87	270
88	260
89	1241
90	460
91	2312
92	691
93	601
94	651
95	951
96	340
97	160
98	340
99	70
100	140
102	1151
103	1641
104	731
105	851
106	520
107	921
109	280
110	2282
111	250
112	130
113	300
114	440
115	5585
116	1271
117	1241
118	801
119	430
120	771
121	581
122	651
123	550
124	380
125	140
126	440
127	2662
128	3033
129	1161
130	781
131	2232
132	3443
133	741
134	440
135	350
136	330
137	250
138	150
139	1401
140	510
141	1712
142	591
143	721
144	1411
145	1011
146	981
147	1451
148	7497
149	1481
150	9739
151	2262
152	2772
153	1661
154	771
155	861
156	450
157	1001
158	470
159	490
160	941
161	2042
162	2732
163	1111
164	1241
165	1481
166	440
167	711
168	891
169	1011
170	721
171	1621
172	981
173	1672
174	1872
175	1331
176	861
177	390
178	470
179	310
180	340
181	1862
182	751
183	611
184	1021
185	1081
186	1672
187	781
188	801
189	450
190	250
191	160
192	80
193	360
194	260
195	440
196	430
197	1181
198	991
199	1031
200	2382
201	6406
202	1621
203	310
204	80
205	100
206	140
207	290
208	180
209	1111
210	480
211	641
212	390
213	460
214	671
215	370
216	510
217	280
218	130
219	50
220	60
222	70
223	290
224	370
225	310
226	841
227	601
228	1081
229	340
230	310
231	60
234	60
235	80
236	140
237	90
238	190
239	110
240	190
241	150
242	621
243	901
244	270
245	60
252	751
253	420
254	681
255	190
256	320
257	80
258	90
268	50
269	130
270	1702
271	9999
272	1962
273	1942
274	310
275	10
