Mass Spectrum: Bis(2-chloroethyl) sulfone
Formula: C4 H8 Cl2 O2 S
CAS: 471-03-4
Molecular weight: 190
Origin: VERIFINN
m/z	RELATIVE INTENSITY
26	981
27	9999
28	4634
29	210
36	50
41	60
43	120
45	180
47	60
48	220
49	270
51	90
55	210
61	250
62	841
63	9829
64	440
65	3303
66	160
75	80
83	180
85	90
92	691
127	370
128	330
129	140
130	130
