Mass Spectrum: .beta.'-Dithiodilactic acid
Formula: C6 H10 O4 S2
CAS: 4775-93-3
Molecular weight: 210
Origin: Japan AIST/NIMC Database- Spectrum MS-NW-2281
m/z	RELATIVE INTENSITY
12	40
13	30
14	80
15	139
16	60
17	169
18	679
19	20
24	30
25	179
26	999
27	3309
28	949
29	979
30	60
31	80
32	379
33	439
34	789
35	1639
36	129
37	80
38	40
39	109
40	70
41	70
42	80
43	379
44	1189
45	2739
46	259
47	349
48	20
49	20
50	20
51	20
52	30
53	169
54	109
55	1329
56	639
57	639
58	2039
59	3919
60	2749
61	9999
62	449
63	539
64	299
65	80
66	60
67	20
68	30
69	50
70	20
71	109
72	149
73	699
74	799
75	40
76	109
77	30
78	239
79	10
80	30
81	30
82	20
83	20
84	20
85	60
86	80
87	60
88	689
89	119
90	50
91	80
92	289
93	489
94	50
95	40
96	10
97	20
98	20
99	10
100	30
103	20
104	889
105	80
106	4079
107	319
108	239
109	149
110	10
111	30
113	10
114	10
115	10
116	80
117	10
118	20
119	379
120	399
121	179
122	30
123	20
128	40
129	10
130	10
131	10
132	10
133	40
134	10
136	10
137	60
138	20
139	10
143	10
146	10
147	129
148	20
149	20
155	30
160	40
162	20
164	20
165	60
166	10
172	40
192	60
210	569
211	40
212	40
