Mass Spectrum: Retene
Formula: C18 H18
CAS: 483-65-8
Molecular weight: 234
Origin: CONTINENTAL OIL CO., PONCA CITY, OKLA, USA
m/z	RELATIVE INTENSITY
13	6
14	67
15	264
16	29
26	22
27	672
28	66
29	101
37	5
38	24
39	275
40	160
41	172
42	19
43	47
44	2
50	58
51	123
52	27
53	22
55	8
56	4
57	11
61	6
62	52
63	179
64	25
65	44
67	10
68	7
69	48
70	15
71	16
74	71
75	130
76	257
77	65
78	27
81	156
82	101
83	227
85	52
87	122
88	302
89	511
91	31
93	43
94	173
95	768
96	223
97	27
98	75
99	81
100	32
101	126
102	267
103	300
104	52
105	15
106	36
107	222
108	321
109	219
110	732
111	16
112	27
113	10
114	15
115	54
116	133
117	312
118	62
119	8
123	20
124	18
125	11
126	19
127	67
128	39
129	37
130	10
135	9
136	13
137	6
138	35
139	160
140	26
141	25
142	27
143	9
150	28
151	131
152	152
153	266
154	59
155	11
156	7
162	32
163	53
164	274
165	490
166	129
167	88
168	24
174	14
175	69
176	96
177	423
178	578
179	173
180	248
181	44
185	24
186	57
187	279
188	273
189	1884
190	824
191	1252
192	757
193	224
194	75
199	59
200	78
201	228
202	307
203	1783
204	2021
205	2298
206	891
207	333
208	186
211	105
212	101
213	286
214	179
215	615
216	348
217	661
218	651
219	9999
220	2071
221	238
222	40
223	32
226	55
227	44
228	42
229	47
230	39
231	69
232	313
233	393
234	8273
235	1550
236	141
