Mass Spectrum: Isoquinoline, 1-[(3,4-diethoxyphenyl)methyl]-6,7-diethoxy-
Formula: C24 H29 N O4
CAS: 486-47-5
Molecular weight: 395
Origin: Tox21 Consortium/NIST Mass Spectrometry Data Center, 2012
m/z	RELATIVE INTENSITY
15	10
25	10
26	50
27	390
28	90
29	1952
30	50
31	10
35	10
36	10
39	50
41	40
42	20
43	130
44	10
45	40
47	10
50	40
51	120
52	30
53	30
54	10
55	280
56	20
57	60
62	20
63	70
64	30
65	50
66	40
67	70
69	70
70	20
71	60
72	10
74	20
75	90
76	100
77	350
78	80
79	70
80	20
81	70
82	30
83	70
84	20
85	40
86	10
87	30
88	50
89	160
90	80
91	80
92	30
93	20
94	50
95	140
97	60
98	10
99	30
100	20
101	50
102	120
103	100
104	150
105	120
106	40
107	30
108	10
109	50
110	70
111	50
112	10
113	60
114	250
115	260
116	100
117	80
118	611
120	10
121	30
122	30
123	651
124	110
125	60
126	110
127	150
128	200
129	90
130	70
131	60
132	530
134	30
135	30
136	10
137	50
138	50
139	210
140	170
141	200
142	130
143	70
144	40
145	30
146	250
148	20
149	40
150	90
151	240
152	350
153	250
154	260
155	90
156	120
157	50
158	30
159	40
160	250
161	100
162	30
163	80
164	110
165	110
166	270
167	450
168	200
169	110
170	210
171	60
172	40
173	10
174	130
175	60
176	40
177	120
178	520
179	310
180	460
181	170
182	130
183	140
184	80
185	20
186	60
187	30
188	40
189	60
190	210
191	470
192	220
193	70
194	190
195	120
196	621
197	180
198	150
199	230
200	100
201	20
202	80
203	50
204	100
205	40
206	250
207	450
208	681
209	230
210	200
211	110
212	120
213	20
214	20
215	10
216	20
217	30
218	70
219	100
220	360
221	140
222	130
223	170
224	821
225	390
226	330
227	100
228	30
229	10
230	20
231	50
232	40
233	40
234	90
235	190
236	961
237	360
238	200
239	40
240	30
241	10
244	10
245	10
246	40
247	40
248	180
249	190
250	120
251	160
252	601
253	290
254	310
255	130
256	20
257	10
261	10
262	100
263	90
264	721
265	370
266	290
267	70
268	90
269	10
273	10
274	20
275	20
276	90
277	140
278	150
279	70
280	490
281	410
282	390
283	80
284	10
289	10
290	40
291	50
292	360
293	270
294	380
295	90
296	60
297	10
303	10
304	40
305	20
306	180
307	60
308	380
309	300
310	510
311	90
312	10
318	10
319	20
320	220
321	500
322	550
323	240
324	130
325	30
334	40
335	20
336	300
337	250
338	971
339	300
340	50
341	10
348	30
349	40
350	651
351	170
352	1631
353	370
354	50
355	10
362	30
363	10
364	120
366	9999
367	2532
368	390
369	40
370	10
376	10
378	20
380	2202
381	550
382	80
383	10
392	20
394	5405
395	5445
396	1301
397	200
398	20
