Mass Spectrum: 3,5-di-tert-Butyl-4-hydroxyanisole
Formula: C15 H24 O2
CAS: 489-01-0
Molecular weight: 236
Origin: Japan AIST/NIMC Database- Spectrum MS-NW-7903
m/z	RELATIVE INTENSITY
15	99
26	20
27	249
28	80
29	749
30	10
31	30
38	20
39	399
40	70
41	1349
42	60
43	289
44	10
45	70
46	10
50	50
51	239
52	70
53	229
54	20
55	669
56	99
57	2969
58	119
59	70
60	70
62	20
63	99
64	30
65	239
66	70
67	299
68	30
69	239
70	10
71	20
72	20
73	109
74	20
75	539
76	40
77	389
78	99
79	219
80	50
81	119
82	70
83	40
85	10
86	10
87	20
88	469
89	879
90	20
91	559
92	60
93	139
94	40
95	159
96	30
97	10
101	20
102	409
103	379
104	70
105	349
106	50
107	159
108	50
109	119
110	189
111	40
113	10
115	269
116	109
117	159
118	70
119	219
120	60
121	389
122	70
123	60
124	80
125	50
127	70
128	149
129	179
130	90
131	209
132	90
133	179
134	70
135	339
136	70
137	339
138	70
139	99
140	10
141	60
142	30
143	70
144	40
145	149
146	129
147	259
148	149
149	259
150	249
151	249
152	40
153	90
154	10
155	30
156	30
157	40
158	50
159	80
160	70
161	669
162	149
163	209
164	299
165	459
166	70
168	10
171	20
172	30
173	109
174	50
175	109
176	30
177	179
178	60
179	629
180	139
181	30
183	10
185	10
187	20
188	40
189	50
190	30
191	90
192	10
193	559
194	70
203	90
204	20
205	379
206	139
207	70
208	20
209	10
210	10
211	10
212	10
213	10
214	10
215	10
217	10
218	10
219	30
220	50
221	9999
222	1619
223	159
224	20
234	10
235	40
236	7679
237	1239
238	129
