Mass Spectrum: 2-Pentanol, 2,3-dimethyl-
Formula: C7 H16 O
CAS: 4911-70-0
Molecular weight: 116
Origin: Japan AIST/NIMC Database- Spectrum MS-IW-3509
m/z	RELATIVE INTENSITY
15	80
18	10
26	30
27	389
28	99
29	509
30	10
31	879
32	10
38	20
39	379
40	50
41	1219
42	109
43	1029
44	30
45	1639
46	40
50	20
51	40
52	10
53	99
54	20
55	559
56	99
57	1039
58	509
59	9999
60	489
61	30
65	10
67	40
68	10
69	279
70	70
71	80
72	20
73	10
83	429
84	30
85	50
87	119
98	30
99	20
101	1439
102	99
103	10
