Mass Spectrum: 2,2'-Thiodisuccinic acid
Formula: C8 H10 O8 S
CAS: 4917-76-4
Molecular weight: 266
Origin: Japan AIST/NIMC Database- Spectrum MS-NW-6111
m/z	RELATIVE INTENSITY
12	249
13	289
14	339
15	329
16	239
17	1179
18	4079
24	349
25	1299
26	9999
27	6839
28	2809
29	979
30	60
31	179
32	499
33	639
34	939
35	1319
36	199
37	239
38	119
39	149
40	129
41	589
42	1089
43	2089
44	5029
45	8029
46	859
47	679
48	119
49	90
50	70
51	80
52	279
53	1629
54	7959
55	5159
56	509
57	799
58	4639
59	5269
60	5189
61	1209
62	369
63	879
64	219
65	90
66	50
67	80
68	90
69	239
70	199
71	1189
72	3549
73	1019
74	219
75	319
76	329
77	139
78	60
79	60
80	80
81	269
82	209
83	169
84	90
85	759
86	3149
87	5369
88	1489
89	519
90	259
91	119
92	40
94	30
95	90
96	80
97	149
98	3179
99	2309
100	2479
101	199
102	129
103	469
104	7369
105	1569
106	649
107	139
108	70
109	80
110	60
111	90
112	189
113	1139
114	569
115	99
116	309
117	149
118	1049
119	80
120	50
121	70
122	30
124	50
125	80
126	40
127	40
128	30
129	40
130	509
131	319
132	8389
133	609
134	499
135	179
136	50
137	30
138	30
139	40
140	139
141	139
142	70
144	60
145	60
147	50
149	219
150	60
151	40
152	40
153	50
154	30
155	50
156	40
157	30
158	2329
159	259
160	179
161	109
162	30
163	50
164	40
165	30
167	30
168	40
169	30
170	30
174	159
175	40
176	179
177	30
178	40
179	30
181	40
182	30
184	50
185	40
186	559
187	90
188	50
195	30
197	30
202	179
203	40
204	519
205	60
206	60
211	30
220	30
230	209
231	40
236	30
248	199
249	30
250	10
