Mass Spectrum: 1,3,5-Triazine, 2,4,6-triphenyl-
Formula: C21 H15 N3
CAS: 493-77-6
Molecular weight: 309
Origin: Japan AIST/NIMC Database- Spectrum MS-NW-9812
m/z	RELATIVE INTENSITY
26	10
27	10
28	20
39	40
44	30
50	99
51	129
52	60
53	10
57	10
63	30
64	10
74	10
75	90
76	869
77	389
78	30
102	70
103	9999
104	1079
105	50
129	20
151	10
154	129
155	30
178	10
205	99
206	119
207	10
308	10
309	4889
310	1179
311	129
