Mass Spectrum: 2H-1-Benzopyran, 3,4-dihydro-2-phenyl-
Formula: C15 H14 O
CAS: 494-12-2
Molecular weight: 210
Origin: CARL DJERASSI DEPT OF CHEM STANFORD UNIV STANFORD CALIF 94305
m/z	RELATIVE INTENSITY
51	4600
52	2500
53	700
55	700
56	100
57	600
62	400
63	1700
64	500
65	1700
66	100
69	300
70	100
71	300
74	400
75	500
76	1000
77	4600
78	5500
79	700
81	100
82	200
83	300
85	100
87	100
88	100
89	900
90	300
91	8000
92	1600
93	100
94	200
95	300
96	200
97	200
101	100
102	600
103	2700
104	9999
105	1500
106	400
107	600
108	100
115	1800
116	1500
117	900
118	1400
119	4700
120	500
131	1300
132	500
133	300
152	300
165	500
166	200
167	400
177	200
178	300
179	100
181	500
189	200
191	400
192	300
193	1000
194	400
195	900
207	400
208	400
209	2100
210	7700
211	1200
