Mass Spectrum: Methane, dipropoxy-
Formula: C7 H16 O2
CAS: 505-84-0
Molecular weight: 132
m/z	RELATIVE INTENSITY
12	10
13	20
14	100
15	440
16	40
17	10
18	20
19	10
26	250
27	2332
28	480
29	1381
30	150
31	961
32	30
37	30
38	70
39	821
40	140
41	1732
42	500
43	9999
44	991
45	170
47	90
55	300
56	30
57	190
58	50
59	180
60	20
61	70
71	60
72	220
73	5855
74	250
75	20
85	10
87	50
88	10
89	210
90	10
91	20
101	30
102	480
103	540
104	40
105	10
106	10
117	40
131	591
132	30
