Mass Spectrum: Eicosanoic acid
Formula: C20 H40 O2
CAS: 506-30-9
Molecular weight: 312
Origin: Chemical Concepts
m/z	RELATIVE INTENSITY
27	838
28	259
29	3082
30	228
31	229
33	48
36	27
37	27
38	143
39	865
40	490
41	6888
42	1524
43	9999
44	314
45	1507
46	41
50	32
51	224
52	34
53	409
54	600
55	6595
56	2050
57	7873
58	277
59	212
60	6057
61	2438
62	116
63	43
64	105
65	35
66	84
67	1131
68	805
69	3527
70	1208
71	4299
72	302
73	7098
74	686
75	130
76	17
78	136
79	280
80	234
81	655
82	836
83	2365
84	1066
85	2614
86	230
87	1552
88	155
89	138
91	61
92	19
93	179
94	93
95	477
96	642
97	2473
98	1540
99	752
100	169
101	573
102	338
103	87
104	14
105	98
107	105
108	48
109	184
110	337
111	1145
112	441
113	381
114	72
115	958
116	608
117	99
118	64
119	69
120	83
121	143
122	44
123	194
124	265
125	489
126	160
127	226
128	160
129	2369
130	382
131	126
132	12
133	66
134	73
135	131
136	73
137	103
138	126
139	108
140	124
141	137
142	110
143	446
144	165
145	24
146	34
147	60
149	39
150	65
151	40
152	85
153	88
155	128
156	54
157	690
158	212
159	47
160	33
161	40
163	63
164	42
165	11
166	85
167	70
169	56
170	33
171	857
172	189
173	28
175	49
178	56
179	84
180	58
181	76
183	65
185	1166
186	225
189	31
190	45
193	74
194	75
195	72
196	59
198	26
199	388
200	130
201	50
206	36
207	41
208	91
209	96
210	53
212	31
213	623
214	190
222	99
227	482
228	155
236	40
237	49
238	38
239	46
241	441
242	61
249	33
250	89
254	24
255	302
256	52
257	40
258	40
259	50
261	36
263	32
267	69
269	923
270	220
271	51
278	26
281	82
283	263
284	60
292	41
302	34
312	1161
313	282
314	23
