Mass Spectrum: cis-Chlordane
Formula: C10 H6 Cl8
CAS: 5103-71-9
Molecular weight: 406
Origin: Richard Turcotte. Direction des laboratoires d'expertises et d'analyses alimentaires, Quebec, Canada.
m/z	RELATIVE INTENSITY
51	220
52	40
53	50
55	30
58	190
60	70
61	170
62	250
63	210
64	70
65	821
66	791
67	100
71	40
72	60
73	410
74	200
75	651
76	50
77	180
79	50
80	80
82	50
83	260
84	150
85	440
86	190
87	260
88	30
89	50
91	90
92	60
94	30
95	110
96	180
97	410
98	370
99	581
100	550
101	390
102	300
103	220
104	60
106	70
107	270
108	250
109	671
110	150
111	380
112	60
113	110
114	120
115	240
116	220
117	420
118	90
119	510
120	330
121	360
122	190
123	300
124	70
125	180
126	130
127	40
130	180
131	180
132	370
133	741
134	330
135	631
136	190
137	430
138	150
139	130
140	30
141	360
143	510
144	70
145	330
146	110
147	140
148	80
149	110
150	150
151	120
152	70
153	30
154	50
155	140
156	70
157	200
158	80
159	200
160	430
161	170
162	120
163	60
165	190
167	310
168	120
169	330
170	310
171	260
172	170
173	120
174	50
177	40
178	30
179	90
180	110
181	150
182	130
183	280
184	90
185	140
186	30
187	30
191	420
192	100
193	520
194	490
195	400
196	550
197	200
198	260
199	40
200	80
201	140
202	50
203	250
204	450
205	240
206	430
207	480
208	210
209	50
213	30
214	120
215	100
216	140
217	350
218	200
219	370
220	110
221	160
222	40
223	30
225	70
226	80
227	290
228	180
229	520
230	671
231	390
232	631
233	200
234	200
235	1411
236	250
237	2202
238	450
239	1541
240	400
241	661
242	230
243	170
244	40
245	40
248	60
249	50
250	70
251	200
252	110
253	270
254	100
255	190
256	80
257	90
261	901
262	100
263	1411
264	1021
265	1261
266	1201
267	811
268	631
269	320
270	1311
271	130
272	1982
273	170
274	1812
275	230
276	771
277	210
278	270
279	80
280	50
281	70
282	30
283	40
285	110
287	80
288	40
289	80
290	40
291	30
293	30
297	40
298	50
299	280
300	220
301	631
302	300
303	390
304	160
305	240
306	80
307	50
308	30
309	30
311	60
313	60
315	30
334	30
335	340
336	70
337	681
338	130
339	651
340	100
341	270
343	80
371	4644
372	460
373	9999
374	1181
375	9459
376	1081
377	5285
378	571
379	1561
380	190
381	330
382	40
383	60
405	160
406	240
407	360
408	550
409	470
410	691
411	320
412	430
413	130
414	190
415	50
416	50
