Mass Spectrum: 1-tert-Butoxy-2-ethoxyethane
Formula: C8 H18 O2
CAS: 51422-54-9
Molecular weight: 146
Origin: Chuck Anderson, Aldrich Chemical Co.
m/z	RELATIVE INTENSITY
13	1
14	17
15	200
16	10
17	1
19	67
26	69
27	670
28	259
29	2103
30	88
31	1351
32	19
33	208
37	8
38	23
39	515
40	94
41	2845
42	363
43	1310
44	261
45	5284
46	123
47	20
50	12
51	21
52	6
53	44
54	11
55	210
56	1483
57	9999
58	772
59	2418
60	104
61	1412
62	50
63	5
65	78
66	1
69	12
70	4
71	13
72	9
73	2144
74	91
75	22
85	55
86	5
87	248
88	16
89	2642
90	116
91	109
92	3
101	1
131	360
132	27
