Mass Spectrum: 6-Amino-3-methylpurine
Formula: C6 H7 N5
CAS: 5142-23-4
Molecular weight: 149
Origin: Chemical Concepts
m/z	RELATIVE INTENSITY
26	57
27	429
28	2751
29	150
30	904
31	28
36	5
37	11
38	594
39	529
40	908
41	732
42	2378
43	242
49	8
50	25
51	79
52	147
53	1523
54	655
55	299
56	38
57	227
58	8
61	4
62	10
64	100
65	289
66	622
67	1069
68	2021
69	117
70	26
73	11
75	12
76	13
77	42
78	53
79	53
80	411
81	94
82	27
83	5
84	5
90	8
91	26
92	43
93	306
94	2487
95	739
96	100
97	8
100	10
105	24
106	82
107	84
108	79
109	24
117	9
120	39
121	3453
122	724
123	41
132	89
147	8
148	100
149	9999
150	791
151	28
