Mass Spectrum: 4-Pentenal, 2-ethyl-
Formula: C7 H12 O
CAS: 5204-80-8
Molecular weight: 112
Origin: A.CORNU ATOMIC ENERGY COMMISSION, GRENOBLE, FRANCE
m/z	RELATIVE INTENSITY
15	860
26	580
27	3890
28	1320
29	4170
30	540
31	1110
38	450
39	4600
40	740
41	9999
42	1940
43	2020
44	190
45	47
50	250
51	320
52	122
53	980
54	330
55	9700
56	2890
57	5240
58	630
65	263
66	110
67	630
68	870
69	880
70	2560
71	342
77	172
80	50
81	310
82	70
83	2940
84	2320
85	178
97	303
111	40
112	30
