Mass Spectrum: [1,1'-Biphenyl]-4-carbonitrile, 4'-butyl-
Formula: C17 H17 N
CAS: 52709-83-8
Molecular weight: 235
Origin: P.A. Leclercq, Lab. Instrum. Anal., Eindhoven Univ. Technol., Netherlands
m/z	RELATIVE INTENSITY
41	319
63	229
140	329
151	289
152	289
163	229
164	409
165	1119
166	269
177	619
178	289
179	269
190	1689
192	9999
193	2289
194	239
235	2389
236	439
