Mass Spectrum: Acetophenone, 2-chloro-
Formula: C8 H7 Cl O
CAS: 532-27-4
Molecular weight: 154
Origin: Japan AIST/NIMC Database- Spectrum MS-NW-3548
m/z	RELATIVE INTENSITY
18	10
26	20
27	109
28	30
35	20
36	50
37	70
38	99
39	249
40	10
41	40
42	80
43	40
45	20
48	10
49	129
50	569
51	1579
52	99
53	10
60	10
61	40
62	80
63	159
64	30
65	219
66	10
73	40
74	179
75	129
76	199
77	5219
78	389
79	10
85	10
86	10
87	10
89	80
90	20
91	459
92	30
99	10
102	60
103	10
104	20
105	9999
106	779
107	50
120	20
125	20
154	99
155	10
156	30
