Mass Spectrum: N-(n-Propyl)acetamide
Formula: C5 H11 N O
CAS: 5331-48-6
Molecular weight: 101
Origin: L.N.Kulikova, V.G. Zaikin, Peoples' Friendship University of Russia, Moscow
m/z	RELATIVE INTENSITY
13	10
14	110
15	701
16	10
25	10
26	240
27	1341
28	430
29	1081
30	9999
31	240
37	10
38	70
39	400
40	130
41	741
42	871
43	4074
44	1181
45	80
50	10
51	30
52	80
53	20
54	70
55	30
56	140
57	50
58	270
59	40
60	230
67	10
71	10
72	831
73	220
74	10
84	10
86	661
87	20
100	10
101	1201
102	80
