Mass Spectrum: Phenylethyne
Formula: C8 H6
CAS: 536-74-3
Molecular weight: 102
Origin: Japan AIST/NIMC Database- Spectrum MS-NW-3381
m/z	RELATIVE INTENSITY
25	10
26	40
27	50
36	20
37	109
38	109
39	249
40	10
45	10
48	10
49	119
50	859
51	779
52	509
53	20
60	20
61	139
62	249
63	549
64	30
72	10
73	149
74	779
75	639
76	1899
77	149
78	10
84	10
85	20
86	30
87	129
88	10
97	30
98	159
99	40
100	20
101	229
102	9999
103	929
104	40
