Mass Spectrum: 5-Octyn-3-ol
Formula: C8 H14 O
CAS: 53723-18-5
Molecular weight: 126
Origin: NIST Mass Spectrometry Data Center, 1994
m/z	RELATIVE INTENSITY
14	43
15	450
16	29
17	38
18	87
19	53
26	429
27	3006
28	810
29	3526
30	29
31	6274
32	101
37	119
38	419
39	3801
40	1677
41	7188
42	1153
43	1541
44	213
49	45
50	557
51	1052
52	590
53	3611
54	244
55	906
56	163
57	1839
58	466
59	6527
60	255
61	75
62	210
63	387
64	73
65	676
66	45
67	9999
68	7443
69	969
70	415
71	107
72	47
77	410
78	70
79	484
80	62
81	197
82	44
83	150
84	137
85	104
91	145
93	85
95	47
96	69
97	723
98	200
111	542
112	59
126	95
