Mass Spectrum: 9H-Fluorene, 2,7-dinitro-
Formula: C13 H8 N2 O4
CAS: 5405-53-8
Molecular weight: 256
Origin: Japan AIST/NIMC Database- Spectrum MS-NW-2504
m/z	RELATIVE INTENSITY
14	10
16	30
26	30
27	149
28	649
29	10
30	789
32	70
37	30
38	80
39	319
40	20
41	40
43	40
44	109
46	80
49	10
50	309
51	329
52	70
53	20
55	40
56	40
57	50
60	10
61	129
62	499
63	1009
64	119
65	80
67	30
68	60
69	149
70	20
71	30
73	50
74	529
75	509
76	249
77	169
78	30
79	10
81	579
82	259
83	30
84	10
85	99
86	479
87	689
88	289
89	319
90	50
91	20
95	10
97	30
98	289
99	229
100	99
101	80
102	139
103	20
104	10
105	20
109	50
110	199
111	259
112	109
113	449
114	179
115	209
116	30
121	10
122	80
123	60
124	30
125	109
126	419
127	189
128	40
129	20
130	10
132	10
133	10
134	40
135	40
136	40
137	449
138	459
139	699
140	769
141	99
142	10
143	10
148	10
149	60
150	579
151	1339
152	4059
153	769
154	159
155	30
156	10
157	10
158	10
160	10
161	319
162	999
163	9069
164	9999
165	4469
166	569
167	80
168	419
169	60
170	10
172	10
173	10
174	10
175	20
176	30
177	109
178	90
179	179
180	1779
181	569
182	139
183	30
184	10
190	10
191	10
192	20
193	199
194	759
195	169
196	319
197	60
198	50
199	10
206	10
207	10
208	40
209	2969
210	6119
211	2839
212	369
213	40
223	20
224	40
225	40
226	929
227	139
228	20
238	10
239	2419
240	559
241	70
242	10
252	10
254	10
255	30
256	8789
257	1339
258	159
259	10
