Mass Spectrum: Acetic acid, chloro-, pentyl ester
Formula: C7 H13 Cl O2
CAS: 5411-55-2
Molecular weight: 164
Origin: V.G.Zaikin,TIPS,Russian Acad.Sci.Moscow
m/z	RELATIVE INTENSITY
27	90
28	20
29	430
30	50
31	90
37	180
38	50
39	651
40	290
41	2292
42	4784
43	6136
44	1071
45	360
47	90
48	110
49	1862
50	991
51	991
52	631
53	150
54	180
55	4494
56	931
57	1011
58	170
59	160
60	60
67	70
68	90
69	1011
70	9999
71	3213
72	110
73	90
76	230
77	4954
78	340
79	2192
80	150
83	180
85	190
91	160
92	50
93	90
94	170
95	1962
96	220
97	520
98	120
99	50
100	50
105	90
107	561
108	90
109	170
110	80
115	150
121	150
