Mass Spectrum: Ethyl N,N-diethyloxamate
Formula: C8 H15 N O3
CAS: 5411-58-5
Molecular weight: 173
Origin: NIST Mass Spectrometry Data Center
m/z	RELATIVE INTENSITY
14	50
15	450
18	200
19	10
25	10
26	260
27	2192
28	1291
29	5885
30	661
31	70
39	30
40	80
41	240
42	1231
43	270
44	3583
45	200
46	10
47	10
52	10
54	50
55	70
56	951
57	150
58	530
59	30
69	10
70	240
72	8918
73	390
74	40
84	50
86	120
98	70
100	9999
101	591
102	60
116	60
130	691
131	40
144	971
145	70
158	10
173	2032
174	190
175	20
