Mass Spectrum: 3-Nonanone, 2-methyl-
Formula: C10 H20 O
CAS: 5445-31-8
Molecular weight: 156
Origin: NIST Mass Spectrometry Data Center, 1990.
m/z	RELATIVE INTENSITY
27	1658
28	733
29	1078
39	1139
41	3370
42	1081
43	9999
44	362
53	209
55	983
56	380
57	1685
58	169
67	124
68	214
69	315
71	2500
72	140
85	2983
86	1829
87	247
95	422
99	159
113	5119
114	416
156	825
