Mass Spectrum: Heptanoic acid, 2-phenylethyl ester
Formula: C15 H22 O2
CAS: 5454-11-5
Molecular weight: 234
Origin: W.Jennings, T.Shibamoto
m/z	RELATIVE INTENSITY
29	70
41	280
43	5295
44	70
55	190
57	681
64	70
69	70
77	70
78	280
79	190
85	991
91	390
92	70
95	70
102	70
103	280
104	9999
105	4194
106	280
113	1491
114	70
