Mass Spectrum: Ethyl 9-hexadecenoate
Formula: C18 H34 O2
CAS: 54546-22-4
Molecular weight: 282
Origin: Japan AIST/NIMC Database- Spectrum MS-IW-3054
m/z	RELATIVE INTENSITY
14	20
15	70
16	10
19	20
26	99
27	1589
28	539
29	4319
30	139
31	389
32	10
37	10
38	30
39	1199
40	269
41	7069
42	1629
43	5439
44	569
45	1149
46	90
47	30
50	30
51	80
52	60
53	779
54	2199
55	9999
56	2319
57	2889
58	269
59	349
60	2499
61	1469
62	60
63	30
64	10
65	199
66	209
67	3529
68	2409
69	7399
70	3379
71	1629
72	169
73	2479
74	289
75	70
76	20
77	239
78	109
79	859
80	599
81	3549
82	2209
83	5679
84	4969
85	1099
86	159
87	739
88	8099
89	1109
90	80
91	289
92	99
93	599
94	739
95	2809
96	4279
97	4829
98	4029
99	879
100	199
101	5459
102	499
103	50
104	20
105	169
106	80
107	499
108	459
109	1829
110	2189
111	2499
112	989
113	619
114	249
115	1099
116	129
117	50
118	30
119	399
120	159
121	639
122	309
123	1839
124	1179
125	1689
126	439
127	669
128	479
129	809
130	179
131	50
132	30
133	409
134	289
135	589
136	349
137	1409
138	1299
139	1239
140	489
141	1019
142	589
143	749
144	209
145	50
146	10
147	309
148	189
149	299
150	179
151	1009
152	2419
153	869
154	309
155	1399
156	309
157	829
158	289
159	40
160	10
161	199
162	70
163	139
164	70
165	569
166	499
167	349
168	109
169	269
170	90
171	389
172	179
173	30
175	109
176	40
177	70
178	50
179	329
180	199
181	299
182	99
183	179
184	70
185	419
186	139
187	30
189	60
190	20
191	40
192	599
193	439
194	2739
195	589
196	70
197	119
198	50
199	309
200	129
201	50
202	10
203	20
204	10
205	40
206	20
207	219
208	279
209	80
210	20
211	159
212	40
213	189
214	90
215	20
217	119
218	279
219	219
220	40
221	60
222	50
223	50
224	30
225	119
226	70
227	139
228	30
229	10
233	10
234	50
235	189
236	3679
237	2689
238	449
239	209
240	60
241	70
242	20
249	40
250	50
251	179
252	50
253	99
254	40
255	30
256	10
264	20
265	10
267	10
278	20
280	60
281	20
282	1419
283	299
284	169
285	30
