Mass Spectrum: 4,5-Octanedione
Formula: C8 H14 O2
CAS: 5455-24-3
Molecular weight: 142
Origin: J.H.BOWIE UNIVERSITY OF ADELAIDE, AUSTRALIA
m/z	RELATIVE INTENSITY
27	1700
28	400
29	800
39	800
41	2900
42	600
43	9999
44	600
69	1100
71	9999
72	700
73	800
113	300
142	1200
