Mass Spectrum: 1H-Pyrrole-2-carboxylic acid, 3,5-dimethyl-4-nitro-, ethyl ester
Formula: C9 H12 N2 O4
CAS: 5463-44-5
Molecular weight: 212
Origin: Chemical Concepts
m/z	RELATIVE INTENSITY
24	26
26	290
27	2409
28	582
29	2849
30	402
31	240
37	114
38	344
39	3789
40	125
41	559
42	2491
43	5150
44	149
45	172
46	23
47	24
49	25
50	276
51	693
52	1006
53	681
54	505
55	252
56	55
57	25
58	24
59	29
61	39
62	134
63	591
64	742
65	3758
66	3558
67	1173
68	307
69	226
70	160
71	23
72	39
75	43
76	139
77	129
78	314
79	1509
80	827
81	582
82	240
83	141
84	59
85	26
86	24
90	87
91	839
92	1630
93	2832
94	705
95	261
96	192
97	50
98	40
99	28
103	92
104	40
105	426
106	91
107	234
108	389
109	480
110	194
111	112
112	53
119	296
120	340
121	2897
122	887
123	600
124	765
125	76
126	92
127	19
132	25
133	24
134	44
135	289
136	631
137	397
138	347
139	333
140	96
141	18
148	292
149	9999
150	2034
151	323
152	75
153	146
154	84
155	41
165	1263
166	522
167	3784
168	323
169	44
181	25
182	26
183	296
184	108
194	33
195	6857
196	860
197	114
211	22
212	6530
213	650
214	95
