Mass Spectrum: Hydrocotarnine
Formula: C12 H15 N O3
CAS: 550-10-7
Molecular weight: 221
Origin: Tox21 Consortium/NIST Mass Spectrometry Data Center, 2012
m/z	RELATIVE INTENSITY
14	10
15	180
18	10
26	20
27	110
28	120
29	150
30	70
31	40
37	20
38	60
39	400
40	60
41	200
42	1641
43	190
44	90
45	40
46	10
47	10
49	20
50	250
51	961
52	250
53	460
54	90
55	100
56	30
57	40
59	180
61	60
62	200
63	550
64	250
65	581
66	230
67	130
68	50
69	50
70	20
72	50
74	170
75	170
76	290
77	1902
78	581
79	350
80	160
81	120
83	20
85	10
87	260
89	871
90	480
91	1151
92	410
93	220
94	210
95	170
98	10
99	10
103	280
104	420
105	1161
106	380
107	260
108	120
114	10
115	40
116	120
117	340
118	751
119	601
120	601
121	300
122	70
123	20
128	20
129	20
130	210
131	210
132	400
133	1091
134	270
135	390
136	110
137	20
144	40
145	100
146	230
147	901
148	1832
149	981
150	550
151	80
152	20
157	10
158	70
159	150
160	330
161	180
162	330
163	2783
164	370
165	110
166	20
172	10
173	10
174	110
175	180
176	330
177	2392
178	8297
179	1001
180	110
181	10
187	10
188	130
189	120
190	440
191	150
192	260
193	40
202	10
203	200
204	300
205	2212
206	420
207	50
208	10
217	10
218	220
220	9999
221	5355
222	691
223	70
224	10
