Mass Spectrum: 1-Nonanol, 9-bromo-
Formula: C9 H19 Br O
CAS: 55362-80-6
Molecular weight: 222
Origin: Chuck Anderson, Aldrich Chemical Co.
m/z	RELATIVE INTENSITY
15	63
17	16
18	37
19	61
25	2
26	149
27	2643
28	804
29	3419
30	136
31	3390
32	51
33	12
35	29
36	171
37	23
38	116
39	1925
40	391
41	8389
42	2298
43	3131
44	420
45	272
46	10
49	16
50	29
51	96
52	50
53	617
54	1163
55	9999
56	1896
57	1451
58	78
59	33
63	38
65	114
66	94
67	2040
68	2356
69	8964
70	1609
71	276
72	25
73	193
74	4
75	6
76	6
77	71
78	11
79	188
80	37
81	1364
82	1652
83	4022
84	330
85	44
87	10
90	35
91	115
92	12
93	149
94	11
95	775
96	384
97	5229
98	409
99	28
104	202
105	30
106	91
107	351
108	29
109	380
110	4
111	22
117	4
118	47
119	35
120	96
121	119
122	87
123	133
124	34
125	20
132	59
133	32
134	610
135	2442
136	657
137	2557
138	98
147	11
148	1494
149	126
150	1537
151	119
161	38
162	826
163	87
164	847
165	50
175	18
176	373
177	41
178	377
179	24
