Mass Spectrum: 7-Azanorbornene
Formula: C6 H9 N
CAS: 55590-24-4
Molecular weight: 95
Origin: ASES Database, Dalian Institute, P.R. China
m/z	RELATIVE INTENSITY
38	1000
39	9999
40	590
42	1281
52	500
53	890
65	1801
66	4313
67	400
68	1901
69	590
80	3202
81	790
95	300
