Mass Spectrum: 1-Butene, 3,3-dimethyl-
Formula: C6 H12
CAS: 558-37-2
Molecular weight: 84
Origin: Japan AIST/NIMC Database- Spectrum MS-NW-3189
m/z	RELATIVE INTENSITY
14	10
15	109
26	99
27	979
28	60
29	649
30	10
37	50
38	149
39	1399
40	239
41	8349
42	579
43	369
44	10
49	20
50	139
51	229
52	70
53	619
54	109
55	689
56	729
57	759
58	30
61	20
62	30
63	50
65	70
66	20
67	359
68	80
69	9999
70	609
71	20
77	10
79	10
83	40
84	2259
85	149
