Mass Spectrum: 1,1'-Biphenyl, 2,2',3,4,4',6-Hexachloro-
Formula: C12 H4 Cl6
CAS: 56030-56-9
Molecular weight: 358
Origin: Organic Synthesis Lab, MSU, Moscow.TRC 1248
m/z	RELATIVE INTENSITY
43	24
44	78
47	68
48	14
49	101
50	168
51	45
55	17
57	14
60	92
61	252
62	127
63	51
66	21
67	21
71	39
72	113
73	427
74	355
75	140
76	11
78	64
79	57
80	17
83	42
84	253
85	276
86	198
87	61
91	384
93	12
94	17
95	40
96	188
97	252
98	313
99	99
102	16
106	35
107	94
108	355
109	805
110	573
111	146
112	17
113	24
114	61
115	62
118	41
119	51
120	139
121	168
122	285
123	97
126	439
127	417
130	16
131	94
132	229
133	164
134	105
135	53
141	10
142	40
144	997
145	1259
146	762
147	346
148	182
149	30
150	13
156	92
157	87
158	64
159	52
160	20
162	198
163	148
165	46
166	23
167	28
168	52
169	68
170	39
171	52
172	21
178	17
179	163
180	344
181	306
182	332
183	346
184	125
185	92
186	10
192	61
193	52
194	65
195	29
203	32
204	66
205	44
206	50
207	25
208	14
215	29
216	77
217	194
218	1108
219	238
220	802
221	95
222	125
223	9
227	19
228	38
229	20
230	57
231	15
238	28
239	22
240	35
241	31
243	16
251	24
252	286
253	347
254	293
255	342
256	124
257	117
258	31
262	22
264	28
274	13
286	24
288	3258
289	480
290	4597
291	587
292	2129
293	265
294	414
295	57
296	39
322	54
323	1276
324	264
325	2187
326	311
327	1311
328	226
329	457
330	76
331	83
358	4919
359	637
360	9999
361	1343
362	8185
363	1055
364	3496
365	449
366	870
367	113
368	101
