Mass Spectrum: Methyl myristoleate
Formula: C15 H28 O2
CAS: 56219-06-8
Molecular weight: 240
Origin: NIST Mass Spectrometry Data Center
m/z	RELATIVE INTENSITY
15	110
26	20
27	571
28	160
29	761
30	30
31	50
33	10
39	1161
40	240
41	4904
42	981
43	2152
44	90
45	240
46	10
50	30
51	120
52	100
53	1011
54	1972
55	9999
56	1772
57	951
59	2442
60	80
61	30
62	10
63	20
64	10
65	370
66	210
67	3083
68	1812
69	5045
70	961
71	460
72	120
73	550
74	5815
75	661
76	50
77	330
78	120
79	961
80	430
81	2923
82	2012
83	3733
84	3513
85	761
87	4494
88	430
89	40
91	340
92	80
93	490
94	510
95	2152
96	3994
97	3563
98	3213
99	520
100	130
101	851
102	90
103	20
105	190
106	80
107	360
108	390
109	1451
110	2362
111	1872
112	761
113	761
114	550
115	791
116	110
117	20
118	30
119	420
120	140
121	470
122	210
123	1782
124	2292
125	1121
126	210
127	510
128	500
129	380
130	90
131	20
132	10
133	350
134	260
135	350
136	100
137	1061
138	821
139	340
140	60
141	601
142	120
143	270
144	90
145	20
147	280
148	180
149	120
150	60
151	631
152	430
153	150
154	40
155	100
156	20
157	130
158	80
159	10
161	160
162	40
163	20
164	631
165	611
166	2392
167	440
168	40
169	50
170	10
171	40
172	40
173	10
175	20
177	10
179	300
180	190
181	30
183	30
184	10
185	20
189	30
190	190
191	150
192	20
193	50
194	10
197	100
198	10
199	10
208	1581
209	1411
210	210
211	40
212	10
222	30
223	10
240	440
241	90
242	10
