Mass Spectrum: Ethylene, 1,1-bis(trimethylsilyl)-
Formula: C8 H20 Si2
CAS: 5654-07-9
Molecular weight: 172
Origin: Institute of Organic Chemistry, Novosibirsk, USSR 1988
m/z	RELATIVE INTENSITY
45	579
58	319
59	509
73	9999
74	789
75	299
83	389
84	309
98	269
99	1269
100	199
101	79
157	3009
158	579
159	289
172	1629
173	399
174	109
