Mass Spectrum: Chlordane
Formula: C10 H6 Cl8
CAS: 57-74-9
Molecular weight: 406
Origin: CATALOGUE OF MASS SPECTRA OF PESTICIDES, APRIL, 1975; J. FREUDENTHAL & L. G. GRAMBERG, NAT'L INST. OF PUBLIC HEALTH, THE NETHERLANDS
m/z	RELATIVE INTENSITY
27	437
28	299
37	119
38	243
39	2829
40	530
41	122
49	836
50	392
51	935
61	467
62	546
63	882
64	220
65	4143
66	2525
67	155
72	190
73	1485
74	927
75	2621
76	189
77	693
82	176
83	810
84	593
85	1089
86	561
87	738
88	118
89	164
95	293
96	581
97	916
98	973
99	2544
100	801
101	1200
102	429
103	309
106	202
107	828
108	665
109	1960
110	566
111	1131
112	151
113	253
114	162
115	406
116	180
117	1126
118	184
119	1329
120	447
121	740
122	416
123	753
124	247
125	612
126	455
127	117
130	476
131	546
132	707
133	1336
134	606
135	1505
136	493
137	874
138	205
139	119
141	1163
142	180
143	1550
144	234
145	992
146	250
147	518
148	246
149	439
150	161
151	169
153	100
154	124
155	263
156	197
157	756
158	377
159	652
160	1902
161	708
162	726
163	211
165	697
167	1181
168	280
169	1022
170	975
171	732
172	720
173	187
174	129
177	101
178	117
179	317
180	392
181	459
182	341
183	992
184	357
185	419
190	102
191	1197
192	311
193	1615
194	1408
195	1381
196	1982
197	881
198	870
199	246
200	314
201	397
202	260
203	730
204	1764
205	886
206	1309
207	434
208	573
209	136
214	375
215	275
216	434
217	1063
218	471
219	833
220	278
221	431
222	151
225	248
226	410
227	793
228	588
229	1220
230	2361
231	1118
232	2194
233	611
234	746
235	3507
236	299
237	5267
238	663
239	3658
240	811
241	1866
242	564
243	463
244	215
245	119
248	176
250	205
251	492
252	275
253	675
254	302
255	320
256	109
257	111
261	1934
262	398
263	3279
264	2736
265	2700
266	2844
267	1851
268	1502
269	688
270	2125
271	285
272	4115
273	299
274	3307
275	501
276	1735
277	392
278	464
279	228
280	107
281	110
285	131
287	141
289	176
299	1199
300	528
301	1827
302	617
303	1296
304	461
305	476
306	141
307	127
313	146
335	826
337	1509
338	278
339	1162
340	225
341	514
343	132
371	5050
372	590
373	9904
374	1176
375	9999
376	1215
377	5616
378	568
379	1632
380	187
381	405
406	257
408	797
409	115
410	855
411	107
412	554
414	209
