Mass Spectrum: 1,2-Dihydroxynaphthalene
Formula: C10 H8 O2
CAS: 574-00-5
Molecular weight: 160
Origin: Japan AIST/NIMC Database- Spectrum MS-IW- 814
m/z	RELATIVE INTENSITY
18	40
27	10
28	30
38	20
39	60
43	10
49	10
50	99
51	439
52	80
53	30
55	20
56	20
57	80
61	20
62	80
63	149
64	40
65	129
66	269
73	10
74	80
75	109
76	119
77	469
78	119
79	30
80	409
85	10
86	30
87	50
88	229
89	40
98	10
101	50
102	199
103	559
104	419
105	60
113	319
114	1059
115	189
116	10
129	10
130	60
131	3369
132	1509
133	129
141	10
142	10
157	10
159	319
160	9999
161	1099
162	90
