Mass Spectrum: 4H-1-Benzopyran-4-one, 2-methyl-
Formula: C10 H8 O2
CAS: 5751-48-4
Molecular weight: 160
Origin: R. I. REED UNIVERSITY OF GLASGOW
m/z	RELATIVE INTENSITY
26	100
27	220
37	210
38	840
39	1670
40	120
41	100
42	100
43	670
50	840
51	970
52	170
53	280
61	130
62	500
63	1810
64	1670
65	490
66	850
67	1170
69	150
89	130
91	100
92	3850
93	250
94	820
101	100
102	250
103	170
120	5180
121	690
131	2340
132	2610
133	220
160	9999
161	1170
