Mass Spectrum: 7-Methylguanine
Formula: C6 H7 N5 O
CAS: 578-76-7
Molecular weight: 165
m/z	RELATIVE INTENSITY
41	683
42	2171
43	4024
44	341
50	98
51	73
52	219
53	2341
54	366
55	366
65	171
66	512
67	1634
68	3487
69	683
70	171
71	122
77	98
78	219
79	171
80	171
81	122
82	171
83	219
93	537
94	341
95	488
96	683
119	195
120	341
121	171
122	122
123	1390
124	2146
125	171
164	878
165	9999
166	829
