Mass Spectrum: 1,2-Propanedione, 1-phenyl-
Formula: C9 H8 O2
CAS: 579-07-7
Molecular weight: 148
Origin: NIST Mass Spectrometry Data Center, 1994
m/z	RELATIVE INTENSITY
12	40
13	137
14	524
15	1901
16	26
25	61
26	104
27	442
29	118
37	230
38	420
39	446
40	40
41	177
42	673
43	2924
44	58
45	18
50	2240
51	4612
52	267
53	141
55	12
61	107
62	164
63	126
64	14
65	32
73	178
74	707
75	376
76	14
77	9115
78	728
79	29
85	26
86	24
87	19
89	30
91	24
102	14
105	9999
106	729
107	35
148	182
149	21
