Mass Spectrum: Benzenamine, 4-bromo-2-methyl-
Formula: C7 H8 Br N
CAS: 583-75-5
Molecular weight: 185
Origin: RADIAN CORP
m/z	RELATIVE INTENSITY
14	10
15	80
16	20
17	70
25	20
26	370
27	890
28	310
29	120
30	210
31	10
36	20
37	310
38	710
39	1110
40	300
41	610
42	270
43	40
45	20
46	10
48	20
49	250
50	1560
51	2360
52	2090
53	1310
54	690
55	70
60	40
61	350
62	720
63	1300
64	370
65	580
66	340
67	160
68	40
72	20
73	210
74	730
75	610
76	690
77	4140
78	2840
79	3660
80	730
81	580
82	110
83	80
84	20
85	70
86	140
87	120
88	90
89	1010
90	200
91	160
93	270
94	250
95	30
99	50
100	50
102	100
103	70
104	1820
105	1330
106	9999
107	870
108	50
116	40
117	120
118	50
119	110
128	20
129	10
130	30
131	40
132	20
133	20
143	40
145	30
155	20
156	30
157	100
158	90
159	80
160	70
168	30
169	50
170	40
171	40
182	50
184	1700
185	8060
186	2280
187	7820
188	660
189	30
