Mass Spectrum: 1H-1,2,4-Triazol-3-amine, 1-propyl-
Formula: C5 H10 N4
CAS: 58661-95-3
Molecular weight: 126
Origin: ORMSBG,10(11)946(1975); R.G.COOKS
m/z	RELATIVE INTENSITY
39	630
40	160
41	1900
42	1350
43	4520
44	1190
54	320
55	320
56	480
57	2940
70	7140
71	630
84	9999
85	630
97	8570
98	4520
99	240
125	560
126	8970
127	790
