Mass Spectrum: Urea, N'-(3-chlorophenyl)-N,N-dimethyl-
Formula: C9 H11 Cl N2 O
CAS: 587-34-8
Molecular weight: 198
m/z	RELATIVE INTENSITY
15	400
38	200
39	200
41	200
42	400
43	300
44	2200
45	500
56	200
57	200
67	200
69	300
71	200
72	9999
73	700
90	300
91	300
111	200
198	2500
200	900
