Mass Spectrum: Cyclohexene, 3-methyl-
Formula: C7 H12
CAS: 591-48-0
Molecular weight: 96
Origin: B. Derendyaev, Novosibirsk Institute of Organic Chemistry
m/z	RELATIVE INTENSITY
14	10
15	60
25	10
26	99
27	1609
28	119
29	639
30	10
37	30
38	109
39	2619
40	499
41	1689
42	209
43	40
45	30
46	30
49	10
50	159
51	529
52	289
53	1779
54	1859
55	2789
56	129
57	10
61	10
62	40
63	109
64	30
65	409
66	379
67	3469
68	3129
69	149
70	10
74	10
75	20
76	10
77	639
78	139
79	1349
80	199
81	9999
82	549
83	20
89	10
91	149
92	20
93	70
94	20
95	549
96	2879
97	189
98	10
