Mass Spectrum: 1-Hexene
Formula: C6 H12
CAS: 592-41-6
Molecular weight: 84
Origin: Japan AIST/NIMC Database- Spectrum MS-NW-9192
m/z	RELATIVE INTENSITY
15	90
26	209
27	3219
28	579
29	1859
30	40
37	80
38	239
39	3089
40	609
41	9509
42	7219
43	5879
44	199
49	20
50	199
51	289
52	119
53	679
54	519
55	6419
56	9999
57	609
58	10
61	10
62	30
63	50
65	80
66	20
67	209
68	40
69	2399
70	139
71	10
74	20
77	40
78	10
79	30
81	20
83	30
84	2919
85	199
86	20
