Mass Spectrum: Thiirane, ethenyl-
Formula: C4 H6 S
CAS: 5954-75-6
Molecular weight: 86
m/z	RELATIVE INTENSITY
26	1270
27	3888
39	5872
44	1270
45	6666
50	1555
51	1587
53	3254
54	2222
84	1111
85	9999
86	6666
