Mass Spectrum: 4-Ethyl-4-heptanol
Formula: C9 H20 O
CAS: 597-90-0
Molecular weight: 144
Origin: NIST Mass Spectrometry Data Center, 1990.
m/z	RELATIVE INTENSITY
15	229
18	169
27	2681
28	1210
29	2658
31	1158
39	1753
40	406
41	4052
42	609
43	3173
44	268
45	1624
51	214
53	711
55	9999
56	824
57	1633
59	6730
60	243
65	214
67	556
68	190
69	1559
70	711
71	806
72	215
73	1349
77	171
79	209
81	167
83	2098
84	578
85	234
97	1299
98	261
101	9999
102	695
115	3350
116	265
126	815
