Mass Spectrum: 5-Nonanol, 5-butyl-
Formula: C13 H28 O
CAS: 597-93-3
Molecular weight: 200
Origin: Chemical Concepts
m/z	RELATIVE INTENSITY
23	4
26	69
27	1567
28	105
29	2765
30	51
31	265
32	7
33	31
36	6
37	5
38	14
39	623
41	2944
42	218
43	1796
44	60
45	419
48	12
50	6
51	40
52	17
53	292
54	63
55	2416
56	349
57	1632
58	668
59	346
65	29
66	8
67	162
68	37
69	4235
70	419
71	259
72	317
73	267
77	34
79	32
81	76
82	17
83	1140
84	91
85	335
86	10
87	503
88	16
95	31
97	76
98	64
99	6
100	58
101	5
111	8
113	86
125	15
140	43
141	33
142	21
143	9999
144	988
145	50
182	20
