Mass Spectrum: 4aH-Cycloprop[e]azulen-4a-ol, decahydro-1,1,4,7-tetramethyl-, [1aR-(1a.alpha.,4.beta.,4a.beta.,7.alpha.,7a.beta.,7b.alpha.)]-
Formula: C15 H26 O
CAS: 5986-49-2
Molecular weight: 222
Origin: Chemical Concepts
m/z	RELATIVE INTENSITY
26	622
27	4181
28	346
29	6708
30	103
31	366
38	123
39	5354
40	622
41	9999
42	1046
43	9481
44	159
45	480
50	128
51	948
52	242
53	3978
54	422
55	9476
56	762
57	1781
58	130
59	3824
60	88
63	210
64	79
65	1717
66	411
67	4943
68	1051
69	3728
70	1200
71	814
72	289
73	84
75	98
77	1797
78	650
79	2608
80	866
81	6676
82	2992
83	6975
84	1151
85	817
86	107
91	2421
92	539
93	7882
94	1416
95	3546
96	2064
97	2336
98	3002
99	506
100	71
103	226
104	97
105	3509
106	676
107	7130
108	3130
109	4495
110	897
111	9193
112	1241
113	124
115	239
116	102
117	245
118	81
119	3029
120	1024
121	2677
122	5263
123	2453
124	1872
125	1406
126	150
127	94
128	96
129	131
131	176
133	2138
134	710
135	1648
136	813
137	897
138	608
139	600
140	243
145	172
146	66
147	1288
148	1245
149	3845
150	474
151	804
152	197
153	239
159	90
160	181
161	6148
162	1280
163	368
164	1732
165	3061
166	738
167	190
175	428
176	170
179	3173
180	502
181	75
189	1172
190	165
193	154
204	1600
205	366
207	721
208	88
222	1857
223	320
