Mass Spectrum: Mercaptamine
Formula: C2 H7 N S
CAS: 60-23-1
Molecular weight: 77
Origin: NIST Mass Spectrometry Data Center
m/z	RELATIVE INTENSITY
26	80
27	350
29	130
30	9999
31	230
32	150
33	120
34	80
39	90
40	180
41	500
42	1361
43	861
44	540
45	1241
46	380
47	861
48	230
49	90
57	210
58	430
59	1261
60	290
61	120
76	90
77	621
