Mass Spectrum: Bismuthine, triphenyl-
Formula: C18 H15 Bi
CAS: 603-33-8
Molecular weight: 440
Origin: B.ZEEH, TUBINGEN UNIVERSITY, TUBINGEN F.R.G.
m/z	RELATIVE INTENSITY
50	800
51	1800
52	700
76	400
77	1400
78	3400
79	400
152	600
153	500
154	1300
209	9999
286	7600
363	600
364	200
