Mass Spectrum: Oxiranemethanol, (S)-
Formula: C3 H6 O2
CAS: 60456-23-7
Molecular weight: 74
Origin: Chuck Anderson, Aldrich Chemical Co.
m/z	RELATIVE INTENSITY
12	18
13	92
14	506
15	1946
16	142
17	30
18	67
19	452
24	23
25	138
26	917
27	2373
28	1360
29	4461
30	425
31	6360
32	79
33	17
35	9
36	80
37	86
38	103
39	138
40	39
41	136
42	862
43	8606
44	9999
45	901
46	49
47	30
53	34
54	6
55	359
56	233
57	128
58	17
59	94
69	6
71	27
73	118
74	18
