Mass Spectrum: 1-Propanone, 1,3,3-triphenyl-
Formula: C21 H18 O
CAS: 606-86-0
Molecular weight: 286
Origin: J. W. BURNHAM - E. J. EISENBRAUN
m/z	RELATIVE INTENSITY
12	9
13	14
14	61
15	160
16	14
17	65
18	155
25	12
26	50
27	228
28	111
29	114
31	33
32	7
37	22
38	43
39	366
40	146
41	108
42	70
43	585
44	62
45	22
50	278
51	1267
52	156
53	66
54	15
55	56
56	24
57	76
58	118
60	15
62	44
63	192
64	47
65	161
69	18
70	31
73	35
74	64
75	101
76	185
77	3359
78	427
79	80
80	17
81	35
82	44
83	62
84	14
85	20
86	34
87	71
88	44
89	208
90	76
91	331
92	35
95	26
96	19
97	22
98	26
99	25
100	18
101	68
102	306
103	2283
104	741
105	9999
106	870
107	89
108	9
109	13
110	13
111	20
113	48
114	31
115	345
116	43
119	24
120	25
125	18
126	74
127	77
128	184
129	43
130	26
131	130
132	19
133	17
137	18
138	31
139	191
140	43
141	119
142	25
147	24
149	22
150	47
151	150
152	904
153	183
154	47
155	22
162	28
163	142
164	208
165	2141
166	831
167	5053
168	718
169	55
176	89
177	106
178	385
179	347
180	500
181	661
182	97
183	29
189	31
191	97
192	43
193	38
194	50
195	89
208	18
209	5
229	26
268	192
286	1259
287	288
