Mass Spectrum: 4'-Nitrobenzo-15-crown-5
Formula: C14 H19 N O7
CAS: 60835-69-0
Molecular weight: 313
Origin: NIST Mass Spectrometry Data Center, 1994
m/z	RELATIVE INTENSITY
14	226
15	632
16	124
27	1719
28	3464
29	2051
30	1124
31	1200
32	290
38	151
39	678
40	166
41	1187
42	640
43	4943
44	1257
45	7649
46	214
50	595
51	2455
52	568
53	821
54	109
55	369
56	109
57	348
58	292
59	502
62	310
63	1529
64	466
65	786
66	152
67	487
68	145
69	343
70	109
71	802
72	109
73	2208
74	350
75	489
76	320
77	1257
78	145
79	4644
80	569
81	364
87	675
88	227
89	1425
90	230
91	837
92	407
93	158
94	148
95	409
96	209
101	197
105	1244
107	3381
108	582
109	226
110	99
115	409
117	151
118	119
120	1795
121	416
122	181
123	300
124	246
125	344
133	346
134	377
135	2306
136	539
137	158
138	109
139	106
149	374
151	3958
152	507
155	125
164	133
165	824
166	3134
167	408
179	159
181	9999
182	1349
183	178
225	476
226	161
313	1896
314	311
