Mass Spectrum: 4-Heptanol, 2,4,6-trimethyl-
Formula: C10 H22 O
CAS: 60836-07-9
Molecular weight: 158
Origin: NIST Mass Spectrometry Data Center, 1990.
m/z	RELATIVE INTENSITY
27	1220
28	668
29	852
31	113
32	108
39	2091
40	547
41	5051
42	607
43	4375
44	210
45	638
50	98
51	325
52	170
53	919
54	98
55	5538
56	3362
57	3237
58	739
59	2102
65	402
66	166
67	1364
68	166
69	6274
70	1184
71	295
77	433
78	97
79	493
80	106
81	597
82	97
83	9999
84	1559
85	382
91	179
97	317
98	141
101	5261
102	335
109	117
125	128
140	1296
141	135
143	278
