Mass Spectrum: Benzoic acid, 2-hydroxy-3,5-dinitro-
Formula: C7 H4 N2 O7
CAS: 609-99-4
Molecular weight: 228
Origin: Japan AIST/NIMC Database- Spectrum MS-NW-4776
m/z	RELATIVE INTENSITY
16	20
17	99
18	439
25	30
26	60
27	50
28	389
29	169
30	1929
31	30
32	10
36	20
37	289
38	359
39	249
40	70
41	20
42	90
43	10
44	219
45	459
46	109
48	30
49	119
50	799
51	789
52	319
53	1789
54	149
55	90
56	10
60	70
61	729
62	2449
63	1529
64	519
65	109
66	749
67	109
68	149
69	339
70	60
71	40
73	50
74	129
75	90
76	129
77	419
78	639
79	539
80	409
81	30
82	70
83	10
84	30
86	10
87	10
88	10
89	109
90	1079
91	749
92	289
93	70
94	229
95	60
96	129
97	10
98	10
102	10
103	10
104	30
105	129
106	209
107	199
108	80
109	20
116	10
117	30
118	1549
119	329
120	139
121	70
122	40
123	149
124	20
134	70
135	80
136	259
137	129
138	20
148	60
149	10
152	2219
153	159
154	30
164	229
165	179
166	20
178	10
180	359
181	40
183	30
184	90
193	10
194	709
195	70
196	10
198	80
199	10
210	9999
211	949
212	199
213	10
228	4849
229	439
230	90
