Mass Spectrum: 3-Pentanamine
Formula: C5 H13 N
CAS: 616-24-0
Molecular weight: 87
Origin: Japan AIST/NIMC Database- Spectrum MS-NW-6034
m/z	RELATIVE INTENSITY
14	10
15	99
26	80
27	349
28	589
29	199
30	1119
31	20
37	10
38	20
39	209
40	40
41	2059
42	359
43	409
44	109
50	10
51	30
52	50
53	30
54	80
55	159
56	399
57	99
58	9999
59	389
67	10
68	10
69	30
70	80
71	10
72	20
84	20
85	10
86	119
87	20
