Mass Spectrum: 4-Ethylbenzoic acid
Formula: C9 H10 O2
CAS: 619-64-7
Molecular weight: 150
Origin: NIST Mass Spectrometry Data Center
m/z	RELATIVE INTENSITY
12	250
13	150
15	741
16	220
18	50
19	290
27	1641
28	400
29	340
34	90
36	100
37	170
38	631
39	1882
40	240
41	220
43	230
45	1581
50	1862
51	3223
52	520
53	691
55	170
61	280
62	831
63	1812
64	450
65	961
66	210
73	190
74	921
75	731
77	4364
78	1161
79	2522
80	170
87	150
89	1241
90	931
91	2312
92	330
101	210
102	490
103	1611
105	9999
106	1672
107	4774
108	380
111	180
117	90
118	110
131	280
132	220
133	651
135	5415
136	721
139	240
147	160
150	5985
151	691
