Mass Spectrum: Carbamic acid, phenyl ester
Formula: C7 H7 N O2
CAS: 622-46-8
Molecular weight: 137
Origin: MASS SPECTROMETRY CENTER, UNIV. OF UTAH ALDRICH P02140-4
m/z	RELATIVE INTENSITY
12	202
14	167
15	508
16	459
25	127
26	608
27	966
29	1327
30	172
31	311
36	171
37	878
38	1894
39	6371
40	2390
41	251
42	890
43	3234
44	1702
46	11
47	370
49	317
50	1042
51	1126
53	487
54	79
55	1345
60	150
61	432
62	693
63	1278
64	523
65	5051
66	7096
67	482
68	339
73	208
74	331
75	164
76	79
77	273
79	95
92	11
93	455
94	9999
95	1321
96	101
137	324
