Mass Spectrum: 1-Butanol, 3,3-dimethyl-
Formula: C6 H14 O
CAS: 624-95-3
Molecular weight: 102
Origin: P.F.DIAMOND SHELL RESEARCH LIMITED THORNTON RESEARCH CENTRE
m/z	RELATIVE INTENSITY
26	138
27	861
29	2250
30	138
31	1027
36	222
38	166
39	1000
40	222
41	5555
42	444
43	2250
44	361
45	1222
53	333
55	777
56	4000
57	9999
58	527
59	194
67	222
69	6666
70	805
71	500
85	416
87	527
