Mass Spectrum: 4-Pentene-2-ol, 2-methyl
Formula: C6 H12 O
CAS: 624-97-5
Molecular weight: 100
Origin: NIST Mass Spectrometry Data Center, 1990.
m/z	RELATIVE INTENSITY
14	229
15	509
27	651
28	815
29	523
31	1916
32	276
38	304
39	1985
40	386
41	2034
43	5299
44	216
53	203
55	585
59	9999
60	348
67	430
83	184
85	565
