Mass Spectrum: 1-Adamantaneethanol
Formula: C12 H20 O
CAS: 6240-11-5
Molecular weight: 180
Origin: Chuck Anderson, Aldrich Chemical Co.
m/z	RELATIVE INTENSITY
27	80
29	128
31	132
38	7
39	370
40	71
41	891
42	46
43	141
44	14
45	16
50	19
51	127
52	58
53	355
54	62
55	425
56	33
57	73
63	20
64	3
65	205
66	65
67	538
68	39
69	117
70	6
77	517
78	158
79	1458
80	132
81	347
82	24
83	8
89	3
91	627
92	315
93	1018
94	91
95	67
103	39
104	58
105	219
106	62
107	538
108	43
109	1
115	21
116	11
117	34
118	10
119	83
120	22
121	22
133	40
135	9999
136	914
137	47
147	7
149	19
150	4
162	1446
163	119
164	34
180	127
181	14
