Mass Spectrum: Formic acid, 1-methylethyl ester
Formula: C4 H8 O2
CAS: 625-55-8
Molecular weight: 88
Origin: Japan AIST/NIMC Database- Spectrum MS-NW-4347
m/z	RELATIVE INTENSITY
13	10
14	80
15	369
16	10
17	20
18	80
19	10
25	20
26	189
27	1979
28	519
29	1079
30	30
31	459
32	99
36	20
37	109
38	249
39	1109
40	279
41	2979
42	3629
43	3009
44	139
45	9999
46	239
47	579
55	10
57	30
58	20
59	549
60	20
73	1659
74	70
87	10
88	30
