Mass Spectrum: Carbamic acid, N-(3-nitrophenyl)-, ethyl ester
Formula: C9 H10 N2 O4
CAS: 6275-72-5
Molecular weight: 210
Origin: A. Brossi, LC, NIDDK, NIH, Bethesda, MD 20892
m/z	RELATIVE INTENSITY
41	555
42	174
43	342
44	195
45	654
46	146
47	32
48	45
49	131
50	986
51	694
52	1216
53	425
54	450
55	95
56	31
57	49
59	15
60	11
61	197
62	669
63	3010
64	3306
65	3649
66	404
67	92
68	54
69	32
70	18
71	22
73	58
74	314
75	645
76	1187
77	549
78	445
79	598
80	1806
81	369
82	40
83	30
84	70
86	66
87	41
88	98
90	2552
91	5295
92	5706
93	711
94	120
95	68
96	30
97	18
98	9
99	11
101	14
102	23
103	83
104	248
105	1691
106	370
107	118
108	764
109	78
110	116
111	43
112	9
115	11
117	82
118	549
119	335
120	191
121	143
122	116
123	10
124	37
125	9
127	13
128	13
129	11
130	17
131	14
132	11
133	5
134	68
135	345
136	627
137	620
138	9999
139	660
140	64
141	11
144	9
145	11
146	10
147	6
148	52
149	114
151	6707
152	498
153	49
154	4
155	4
157	10
159	4
161	4
162	4
163	48
164	813
165	1216
166	124
167	20
168	4
170	4
171	5
173	11
175	16
177	12
178	4
180	16
181	45
182	366
183	209
184	18
186	6
193	13
194	7
195	188
196	33
197	10
205	4
206	7
210	9474
211	1216
212	149
213	16
