Mass Spectrum: 1,3-Propanediol, diacetate
Formula: C7 H12 O4
CAS: 628-66-0
Molecular weight: 160
Origin: NIST Mass Spectrometry Data Center, 1994
m/z	RELATIVE INTENSITY
12	12
13	38
14	192
15	1037
16	20
17	4
18	7
19	15
26	80
27	260
28	318
29	426
30	44
31	126
32	5
37	6
38	17
39	147
40	44
41	241
42	5
43	9999
44	220
45	104
55	43
57	359
58	319
59	29
60	29
61	542
62	11
70	192
71	68
72	383
73	190
74	7
75	39
82	8
85	18
87	148
88	319
89	14
99	78
100	425
101	41
103	238
104	11
115	14
117	35
118	11
