Mass Spectrum: Hexadecanenitrile
Formula: C16 H31 N
CAS: 629-79-8
Molecular weight: 237
Origin: V.G. Zaikin, R.S.Borisov, TIPS RAS, Moscow, Russia
m/z	RELATIVE INTENSITY
26	100
27	1091
28	1091
29	2732
30	220
31	70
38	40
39	971
40	200
41	6986
42	1862
43	9008
44	460
45	20
51	50
52	40
53	490
54	1962
55	6876
56	3443
57	8578
58	500
59	20
60	30
61	1241
65	60
66	90
67	1211
68	1321
69	5495
70	4934
71	3453
72	180
73	130
77	80
78	30
79	470
80	240
81	981
82	4094
83	6216
84	2632
85	1822
86	130
87	20
91	140
92	20
93	410
94	320
95	661
96	5865
97	9999
98	2242
99	571
100	50
107	190
108	190
109	290
110	6906
111	4684
112	1381
113	320
114	40
116	130
121	110
122	380
123	130
124	4964
125	1772
126	1001
127	160
130	20
135	70
136	230
137	40
138	2973
139	731
140	721
141	80
150	50
152	2072
153	410
154	480
155	50
164	30
166	1862
167	290
168	320
169	30
180	2462
181	400
182	530
183	30
194	3483
195	591
196	390
197	30
208	2542
209	460
210	80
222	470
223	40
236	150
237	30
