Mass Spectrum: 1,2-Ethanediol, diformate
Formula: C4 H6 O4
CAS: 629-15-2
Molecular weight: 118
Origin: Japan AIST/NIMC Database- Spectrum MS-IW-3812
m/z	RELATIVE INTENSITY
13	20
14	109
15	659
16	20
18	20
25	30
26	309
27	1399
28	769
29	4099
30	379
31	8329
32	2159
33	199
41	50
42	439
43	3559
44	8659
45	1629
46	139
47	939
48	10
58	10
59	129
60	9999
61	659
62	80
72	1469
73	819
74	60
75	10
88	20
89	10
