Mass Spectrum: Phenylalanine
Formula: C9 H11 N O2
CAS: 63-91-2
Molecular weight: 165
Origin: N.W. Davies, Centr. Sci. Lab., Univ. Tasmania, Hobart, Australia
m/z	RELATIVE INTENSITY
27	120
29	100
30	200
39	600
41	240
42	350
43	210
44	250
46	510
50	220
51	630
52	170
60	430
62	110
63	410
64	140
65	1410
66	110
74	9999
75	330
76	120
77	890
78	230
89	370
90	290
91	6380
92	2090
93	320
103	1020
104	320
117	360
118	610
119	750
120	5630
121	510
165	120
