Mass Spectrum: Benzeneethanamine, N-(2-phenylethyl)-
Formula: C16 H19 N
CAS: 6308-98-1
Molecular weight: 225
m/z	RELATIVE INTENSITY
27	300
28	100
29	100
30	500
39	200
41	200
42	500
43	500
44	100
51	300
55	100
56	100
57	100
63	100
65	400
69	100
74	100
75	100
77	1001
78	200
79	1001
80	100
91	1001
92	100
94	100
103	500
104	200
105	9509
106	801
117	100
132	100
134	9999
135	1201
