Mass Spectrum: Phendimetrazine
Formula: C12 H17 N O
CAS: 634-03-7
Molecular weight: 191
Origin: NIST Mass Spectrometry Data Center, 1990.
m/z	RELATIVE INTENSITY
15	101
27	243
28	279
29	271
30	138
38	64
39	400
40	94
41	64
42	6343
43	267
44	293
50	275
51	742
52	251
53	70
54	225
55	64
56	2867
57	9999
58	505
62	76
63	287
64	85
65	290
66	48
68	66
70	1541
71	117
72	37
74	69
75	78
76	158
77	1452
78	410
79	176
85	7262
86	463
89	293
90	146
91	803
92	72
96	43
100	74
102	95
103	167
105	818
106	101
115	557
116	158
117	807
118	352
119	65
130	64
131	54
144	75
176	76
190	71
191	888
192	108
