Mass Spectrum: Propanoic acid, 3-mercapto-, dodecyl ester
Formula: C15 H30 O2 S
CAS: 6380-71-8
Molecular weight: 274
Origin: NIST Mass Spectrometry Data Center, 1994
m/z	RELATIVE INTENSITY
15	83
18	48
26	183
27	2662
28	1874
29	3961
30	119
31	161
33	61
34	78
35	587
39	1029
41	7413
42	1956
43	9999
44	398
45	420
46	243
47	790
49	45
51	42
53	389
54	648
55	6096
56	2587
57	8925
58	583
59	479
60	1359
61	4312
62	192
63	287
65	57
66	70
67	722
68	550
69	3061
70	1898
71	3963
72	244
73	299
74	42
75	58
77	98
79	98
80	32
81	272
82	612
83	1812
84	1002
85	1872
86	176
87	32
88	2999
89	2441
90	265
91	139
95	86
96	366
97	1231
98	579
99	302
100	33
101	42
104	47
106	3797
107	1836
108	282
109	118
110	166
111	655
112	266
113	175
115	35
119	48
124	80
125	296
126	119
127	68
129	68
133	43
138	29
139	87
140	188
141	33
143	57
144	36
147	39
157	65
161	40
168	264
169	82
189	32
201	441
202	75
203	47
213	33
223	45
241	285
242	54
245	26
256	67
274	49
