Mass Spectrum: 1,2,4,4-Tetramethylcyclopentene
Formula: C9 H16
CAS: 65378-76-9
Molecular weight: 124
Origin: NIST Mass Spectrometry Data Center, 1990.
m/z	RELATIVE INTENSITY
15	140
27	477
28	319
29	259
38	133
39	1474
40	277
41	1506
42	141
43	527
50	179
51	434
52	188
53	738
54	134
55	1021
56	90
63	171
65	558
67	4851
68	443
69	420
77	901
78	220
79	913
80	171
81	1903
82	230
83	171
91	939
92	161
93	456
94	252
95	269
105	117
107	336
109	9999
110	810
124	1893
125	181
