Mass Spectrum: Phenol, 2-[(ethylthio)methyl]-
Formula: C9 H12 O S
CAS: 65370-06-1
Molecular weight: 168
Origin: J.Sanz-Asensio ET AL.J.Chrom.,840,235(1999)
m/z	RELATIVE INTENSITY
46	340
47	230
50	781
51	1892
52	981
53	851
55	180
57	130
58	801
59	310
60	130
61	230
62	230
63	601
64	160
65	360
66	160
67	80
69	100
71	100
74	180
75	100
77	5105
78	2883
79	1892
80	280
89	180
90	180
91	180
95	260
105	130
107	9999
108	2412
109	260
137	130
139	310
168	1922
169	160
170	50
