Mass Spectrum: 4-Chlorophenyl cyclopropyl ketone
Formula: C10 H9 Cl O
CAS: 6640-25-1
Molecular weight: 180
Origin: NIST Mass Spectrometry Data Center, 1992
m/z	RELATIVE INTENSITY
13	17
15	100
17	24
18	136
19	6
25	11
26	91
27	257
29	41
30	4
35	14
36	27
37	134
38	339
39	1418
40	208
41	1186
42	95
43	29
44	9
45	6
47	11
48	13
49	114
50	1154
51	586
52	45
53	71
54	8
55	72
56	17
57	102
58	142
60	24
61	150
62	188
63	279
64	34
65	49
66	9
67	13
68	112
69	1008
70	48
71	22
72	106
73	198
74	746
75	2439
76	577
77	168
78	18
81	7
82	5
84	90
85	286
86	99
87	143
88	36
89	213
90	32
91	61
92	6
96	8
97	30
98	32
99	43
100	15
101	75
102	56
103	26
104	113
105	18
108	15
111	3554
112	332
113	1183
114	150
115	650
116	218
117	173
118	20
123	25
124	22
125	57
126	37
127	175
128	49
129	5
135	7
136	35
139	9999
140	950
141	3112
142	285
143	60
144	332
145	288
146	28
149	40
150	32
151	90
152	23
153	27
154	11
155	8
161	16
162	8
163	18
165	17
167	5
179	679
180	1896
181	442
182	607
183	63
184	6
