Mass Spectrum: 2,3-Dioxabicyclo[2.2.2]oct-5-ene
Formula: C6 H8 O2
CAS: 6671-70-1
Molecular weight: 112
Origin: Institute of Organic Chemistry, USSR, 1990
m/z	RELATIVE INTENSITY
26	1400
27	3000
28	2400
29	3400
30	100
31	200
37	200
38	300
39	1800
40	300
41	700
42	300
43	300
44	100
50	300
51	400
52	200
53	400
54	300
55	2400
56	400
57	400
60	800
65	100
66	200
67	200
68	500
69	200
70	300
71	200
77	500
78	400
79	4900
80	9999
81	600
83	600
84	300
94	200
112	1100
