Mass Spectrum: Cyclopropylacetylene
Formula: C5 H6
CAS: 6746-94-7
Molecular weight: 66
Origin: A.Pleshkova, Nesmeyanov Inst.Org.Elem.Cpds, Moscow
m/z	RELATIVE INTENSITY
40	591
41	50
48	120
49	681
50	1952
51	1812
52	270
53	30
60	220
61	811
62	1161
63	1822
64	420
65	6916
66	9999
67	761
68	20
