Mass Spectrum: Guanidine, N-methyl-N'-nitro-N-nitroso-
Formula: C2 H5 N5 O3
CAS: 70-25-7
Molecular weight: 147
Origin: MASS SPECTROMETRY CENTER, UNIV. OF UTAH ALDRICH 12994-1
m/z	RELATIVE INTENSITY
12	217
13	421
14	1167
15	2592
16	624
17	115
25	22
26	397
27	1726
28	1600
29	1797
30	9999
31	491
36	27
38	64
39	123
40	344
41	663
42	6083
43	6958
44	3270
45	286
46	1467
47	121
52	85
53	1244
54	777
55	3479
56	2244
57	3409
58	478
59	230
60	160
64	88
70	88
71	1056
72	6357
73	364
74	29
75	427
88	200
101	1342
102	60
117	645
118	216
147	159
