Mass Spectrum: (Z)-1,3-Butadien-1-ol
Formula: C4 H6 O
CAS: 70415-58-6
Molecular weight: 70
Origin: F. TURECEK,HEYROVSKY INST.PHYS.CHEM.ELECTROCHEM.,PRAGUE,CZECH.
m/z	RELATIVE INTENSITY
14	100
15	300
25	100
26	500
27	2200
28	700
29	1500
30	200
31	500
36	100
37	300
38	600
39	6200
40	400
41	9999
42	2100
43	1200
49	50
50	400
51	400
52	900
53	200
54	700
55	200
68	200
69	3500
70	9300
71	500
