Mass Spectrum: L-Threonine, N-glycyl-
Formula: C6 H12 N2 O4
CAS: 7093-70-1
Molecular weight: 176
Origin: Japan AIST/NIMC Database- Spectrum MS-NW-2631
m/z	RELATIVE INTENSITY
12	30
13	20
14	149
15	439
16	169
17	199
18	699
25	30
26	179
27	559
28	2059
29	1039
30	9999
31	559
32	50
36	70
37	10
38	40
39	189
40	90
41	409
42	659
43	929
44	1189
45	1019
46	99
47	10
51	30
52	90
53	40
54	299
55	339
56	709
57	1879
58	299
59	219
60	50
63	10
66	30
67	119
68	179
69	419
70	109
71	309
72	169
73	169
74	529
75	559
76	20
77	10
79	20
80	20
81	50
82	80
83	99
84	179
85	409
86	459
87	159
88	50
89	20
92	20
93	30
94	60
95	80
96	60
97	549
98	60
99	50
100	30
101	50
102	40
103	20
104	99
105	20
106	20
107	20
108	20
109	60
110	30
111	70
112	80
113	159
114	5079
115	399
116	40
117	10
118	10
119	10
120	30
121	30
122	20
123	30
124	40
125	40
126	99
127	40
128	10
130	20
131	20
132	659
133	90
134	20
135	20
136	30
137	30
138	20
139	30
140	459
141	40
142	10
143	60
144	20
145	10
146	20
147	10
149	20
150	30
151	30
152	40
153	30
154	60
155	20
156	20
158	139
159	10
160	20
161	10
162	20
163	10
164	20
165	20
166	20
167	10
168	20
171	10
172	70
173	10
174	10
176	10
177	10
