Mass Spectrum: Benzene, 1-bromo-4-isothiocyanato-2-methyl-
Formula: C8 H6 Br N S
CAS: 71672-88-3
Molecular weight: 227
Origin: NIST Mass Spectrometry Data Center, 1994
m/z	RELATIVE INTENSITY
15	172
25	82
26	474
27	875
28	552
32	692
37	1168
38	2044
39	4068
40	447
41	91
43	154
44	866
45	2620
46	135
47	147
48	73
49	474
50	2540
51	2580
52	739
53	100
56	103
57	164
58	515
59	285
60	73
61	1436
62	2965
63	6371
64	2089
65	413
66	79
69	480
70	1327
71	174
72	279
73	79
74	2030
75	1363
76	1068
77	1756
78	521
79	119
80	112
81	290
82	255
83	445
84	305
85	470
86	811
87	847
88	1073
89	5252
90	3345
91	275
93	194
94	230
95	270
96	337
99	116
100	90
101	69
102	375
103	1274
104	2206
105	207
106	108
107	143
108	196
113	692
114	690
115	539
116	884
117	283
118	76
119	390
120	1071
121	2719
122	493
123	180
133	102
143	95
145	95
146	1271
147	1200
148	9564
149	1008
150	476
169	725
171	723
195	138
197	121
199	73
201	73
227	9721
228	1415
229	9999
230	928
231	469
