Mass Spectrum: Tridecane, 7-hexyl-
Formula: C19 H40
CAS: 7225-66-3
Molecular weight: 268
m/z	RELATIVE INTENSITY
29	6556
30	90
31	10
32	10
37	10
38	10
39	611
40	70
41	4934
42	981
43	9959
44	300
45	10
50	10
51	20
52	10
53	240
54	310
55	3323
56	1641
57	9999
58	450
59	20
65	30
66	20
67	290
68	210
69	1581
70	951
71	6446
72	330
73	10
77	30
78	10
79	60
80	20
81	130
82	170
83	761
84	500
85	4394
86	270
87	10
91	10
92	10
93	10
94	10
95	40
96	90
97	500
98	260
99	1091
100	80
109	10
110	60
111	300
112	180
113	781
114	60
115	10
123	10
124	30
125	150
126	120
127	520
128	50
129	10
137	10
138	20
139	60
140	80
141	250
142	30
151	10
152	10
153	30
154	130
155	40
156	10
168	80
169	50
170	10
179	10
180	10
181	10
182	2382
183	1872
184	210
185	20
196	50
197	70
198	20
210	20
211	30
212	10
224	10
225	10
226	10
238	10
239	10
240	10
266	10
267	10
268	10
269	10
