Mass Spectrum: 2-Hydroxy-5-methylisophthalaldehyde
Formula: C9 H8 O3
CAS: 7310-95-4
Molecular weight: 164
Origin: Japan AIST/NIMC Database- Spectrum MS-NW-9461
m/z	RELATIVE INTENSITY
18	20
26	50
27	529
28	189
29	299
30	10
31	20
32	10
37	70
38	159
39	839
40	109
41	90
42	30
43	169
44	30
45	139
46	20
49	60
50	469
51	1099
52	449
53	1019
54	159
55	359
56	10
57	10
58	10
59	229
61	80
62	249
63	589
64	209
65	239
66	109
67	129
68	179
69	20
73	30
74	149
75	119
76	70
77	2319
78	499
79	1839
80	309
81	99
82	149
83	10
85	30
86	50
87	50
88	30
89	1149
90	2339
91	379
92	40
93	20
105	249
106	129
107	2349
108	279
109	30
113	10
117	80
118	469
119	159
120	10
121	30
133	179
134	90
135	4199
136	9999
137	859
138	70
149	20
160	10
161	469
162	80
163	789
164	7019
165	799
166	80
