Mass Spectrum: Propiolamide
Formula: C3 H3 N O
CAS: 7341-96-0
Molecular weight: 69
Origin: Chemical Concepts
m/z	RELATIVE INTENSITY
25	989
26	643
27	229
28	585
29	133
30	20
34	84
36	58
37	84
38	270
39	255
40	634
41	4459
42	1236
43	575
44	1908
45	38
50	156
51	507
52	625
53	9999
54	316
55	66
56	36
57	97
67	44
68	704
69	7318
70	355
71	57
