Mass Spectrum: 1,1'-Biphenyl, 3,4'-dimethyl-
Formula: C14 H14
CAS: 7383-90-6
Molecular weight: 182
Origin: Chemical Concepts
m/z	RELATIVE INTENSITY
24	8
26	53
27	268
29	34
30	6
36	5
37	18
38	69
39	570
40	69
41	95
42	6
43	17
44	8
49	7
50	171
51	386
52	70
53	77
54	14
55	16
56	8
57	18
58	6
59	6
60	3
61	32
62	167
63	453
64	171
65	341
66	35
67	18
68	7
69	18
70	18
71	10
72	16
73	9
74	120
75	173
76	456
77	392
78	97
79	46
80	6
81	22
82	179
83	235
84	9
85	14
86	70
87	130
88	109
89	822
90	728
91	697
92	43
93	7
94	7
95	8
96	7
97	10
98	56
99	34
100	37
101	58
102	119
103	61
104	35
105	62
106	7
107	5
108	5
109	7
110	20
111	20
112	7
113	66
114	35
115	672
116	106
117	25
118	7
119	7
120	6
121	5
122	7
123	7
124	7
125	17
126	108
127	174
128	355
129	110
130	14
131	7
132	5
133	7
134	7
135	7
136	5
137	24
138	21
139	284
140	64
141	286
142	71
143	18
144	4
145	6
146	4
147	6
148	6
149	7
150	66
151	194
152	986
153	425
154	78
155	90
156	19
157	6
158	3
161	6
162	18
163	139
164	196
165	3018
166	1662
167	4009
168	697
169	52
170	28
171	7
172	4
173	5
174	7
175	16
176	107
177	88
178	410
179	283
180	101
181	2480
182	9999
183	1480
184	113
