Mass Spectrum: 3,5-Heptanedione
Formula: C7 H12 O2
CAS: 7424-54-6
Molecular weight: 128
Origin: ORMSBG,9(1)6(1974); VANDEWALLE
m/z	RELATIVE INTENSITY
39	300
41	300
42	400
43	1300
53	400
55	300
57	9999
69	200
72	400
81	200
99	9700
100	500
128	3300
