Mass Spectrum: trans-3-Methylcyclohexanol
Formula: C7 H14 O
CAS: 7443-55-2
Molecular weight: 114
Origin: NIST Mass Spectrometry Data Center, 1990.
m/z	RELATIVE INTENSITY
14	220
15	427
26	281
27	2627
28	1809
29	2356
31	771
32	245
38	351
39	3303
40	677
41	4538
42	2312
43	3420
44	2474
45	397
50	220
51	402
53	1015
54	1049
55	3814
56	1148
57	4564
58	575
65	247
66	238
67	1527
68	1608
69	1296
71	9999
72	586
77	217
79	545
81	8180
82	559
86	289
95	844
96	5227
97	573
112	187
