Mass Spectrum: Thiopental
Formula: C11 H18 N2 O2 S
CAS: 76-75-5
Molecular weight: 242
Origin: Tox21 Consortium/NIST Mass Spectrometry Data Center, 2012
m/z	RELATIVE INTENSITY
15	20
26	50
27	781
28	290
29	1291
30	80
31	10
33	10
36	10
37	20
38	60
39	1161
40	300
41	4354
42	490
43	5915
44	641
45	110
46	40
47	40
48	10
50	40
51	140
52	140
53	831
54	360
55	2092
56	500
57	130
58	80
59	280
60	440
61	70
62	30
63	20
64	10
65	150
66	150
67	561
68	250
69	2142
70	400
71	961
72	110
73	40
74	40
75	20
76	20
77	180
78	40
79	120
80	190
81	150
82	90
83	290
84	170
85	300
86	300
87	30
88	50
89	40
90	10
91	40
92	20
93	30
94	130
95	310
96	150
97	1501
98	1041
99	90
100	40
101	40
102	80
103	90
104	10
106	10
107	20
108	30
109	90
110	90
111	250
112	571
113	80
114	250
115	30
116	30
117	10
118	10
119	10
120	10
121	10
122	20
123	50
124	60
125	250
126	80
127	30
128	50
129	831
130	60
131	70
132	40
133	10
135	10
136	10
137	50
138	80
139	160
140	170
141	130
142	30
143	70
144	140
145	70
146	10
147	10
151	10
152	20
153	10
154	50
155	40
156	140
157	9999
158	681
159	540
160	30
161	10
165	10
166	30
167	30
168	10
169	40
170	40
171	821
172	9899
173	6166
174	941
175	330
176	30
181	90
182	20
183	40
184	10
185	30
186	10
195	20
196	10
197	20
198	10
199	30
200	10
209	30
210	10
213	240
214	70
215	20
216	10
225	10
242	751
243	110
244	50
245	10
