Mass Spectrum: Methanone,(2-bromophenyl)-2-pyridinyl-
Formula: C12 H8 Br N O
CAS: 76160-34-4
Molecular weight: 261
Origin: ASES Database, Dalian Institute, P.R. China
m/z	RELATIVE INTENSITY
50	400
51	790
52	190
63	90
75	890
76	990
77	490
78	890
101	200
126	300
127	980
128	400
152	90
153	290
154	1101
155	2902
182	9999
183	2382
233	100
260	190
262	190
