Mass Spectrum: 1,4-Pentadiene, 2-methyl-
Formula: C6 H10
CAS: 763-30-4
Molecular weight: 82
Origin: NIST Mass Spectrometry Data Center, 1990.
m/z	RELATIVE INTENSITY
15	282
26	314
27	1533
28	89
29	399
37	323
38	763
39	5205
40	982
41	4067
42	607
43	120
49	75
50	488
51	607
52	279
53	1119
54	1071
55	428
56	170
61	78
62	146
63	218
64	75
65	1264
66	75
67	9999
68	527
74	57
77	262
79	631
81	755
82	790
83	52
