Mass Spectrum: Benzene, 1-ethynyl-4-methyl-
Formula: C9 H8
CAS: 766-97-2
Molecular weight: 116
Origin: EP-1334
m/z	RELATIVE INTENSITY
49	40
50	200
51	230
52	50
61	120
62	210
63	670
64	100
65	250
73	40
74	250
75	240
76	50
85	80
86	160
87	200
88	120
89	750
90	170
98	70
115	9999
116	9300
117	900
118	50
