Mass Spectrum: Propanenitrile, 2-hydroxy-
Formula: C3 H5 N O
CAS: 78-97-7
Molecular weight: 71
Origin: NIST Mass Spectrometry Data Center, 1998.
m/z	RELATIVE INTENSITY
13	50
14	160
15	240
16	40
24	30
25	80
26	530
27	1110
28	1610
29	1480
30	100
31	30
36	30
37	70
38	160
39	150
40	300
41	470
42	3740
43	2230
44	1160
45	250
50	110
51	600
52	810
53	270
54	620
55	280
56	9999
57	260
58	10
67	20
68	10
69	40
70	840
71	50
