Mass Spectrum: 9,10-Anthracenedione, 1-amino-4-bromo-2-methyl-
Formula: C15 H10 Br N O2
CAS: 81-50-5
Molecular weight: 315
Origin: Japan AIST/NIMC Database- Spectrum MS-NW-8172
m/z	RELATIVE INTENSITY
17	40
18	119
26	10
27	60
28	179
29	10
30	70
37	10
38	20
39	109
40	10
41	20
42	20
43	20
44	10
49	10
50	239
51	279
52	109
53	60
54	60
55	30
57	10
60	10
61	30
62	99
63	279
64	50
65	50
66	40
67	10
68	20
69	30
70	10
71	10
73	20
74	179
75	379
76	1069
77	769
78	90
79	30
80	70
81	60
82	80
83	20
84	10
85	20
86	80
87	119
88	80
89	279
90	709
91	40
92	20
95	30
96	30
97	10
98	60
99	99
100	80
101	99
102	149
103	279
104	499
105	139
106	10
109	20
110	40
111	50
112	30
113	99
114	60
115	60
116	20
117	90
118	409
119	10
120	10
122	30
123	30
124	20
125	109
126	189
127	259
128	109
129	40
130	50
131	10
132	10
133	10
134	10
135	10
136	10
137	90
138	99
139	119
140	119
141	40
142	10
143	60
144	50
145	10
149	30
150	239
151	699
152	1569
153	799
154	149
155	40
156	10
157	129
158	119
159	20
161	20
162	70
163	439
164	239
165	179
166	60
167	30
168	20
169	10
175	20
176	40
177	199
178	489
179	569
180	1349
181	439
182	70
183	30
184	20
185	20
188	30
189	50
190	159
191	109
192	60
193	60
194	50
195	10
196	10
205	10
206	189
207	279
208	2349
209	469
210	50
211	50
212	10
217	10
218	10
219	20
220	10
221	30
222	99
223	20
224	10
231	20
232	10
233	20
234	30
235	149
236	1119
237	299
238	40
241	10
242	10
243	20
244	20
245	20
246	10
251	20
252	20
253	80
254	20
258	209
259	139
260	229
261	129
262	30
270	10
271	20
272	30
273	20
274	20
285	10
286	529
287	479
288	579
289	469
290	70
314	989
315	9999
316	2629
317	9859
318	1639
319	169
320	10
