Mass Spectrum: Pentanedioic acid, diethyl ester
Formula: C9 H16 O4
CAS: 818-38-2
Molecular weight: 188
Origin: V.G. Zaikin, R.S.Borisov, TIPS RAS, Moscow, Russia
m/z	RELATIVE INTENSITY
26	220
27	1972
28	1772
29	4444
30	150
31	320
39	561
40	140
41	1121
42	3803
43	1812
44	90
45	1521
46	30
49	150
55	2082
56	50
58	100
59	40
60	1031
61	470
68	150
69	180
70	691
71	80
72	20
73	991
74	30
85	781
86	1091
87	4294
88	1241
89	140
96	20
97	550
98	280
99	30
101	731
102	30
113	90
114	5725
115	5455
116	550
117	40
142	2612
143	9999
144	801
145	80
