Mass Spectrum: Theobromine
Formula: C7 H8 N4 O2
CAS: 83-67-0
Molecular weight: 180
Origin: NIST Mass Spectrometry Data Center, 1990.
m/z	RELATIVE INTENSITY
14	373
15	971
16	77
26	181
28	986
29	103
30	92
38	217
39	277
40	732
41	667
42	712
43	254
44	113
51	208
52	344
53	443
54	576
55	2897
56	262
65	138
66	626
67	3438
68	431
69	178
70	640
74	94
77	65
79	133
80	233
81	542
82	2304
83	244
94	301
95	115
107	78
108	342
109	2412
110	421
111	366
135	105
136	461
137	1325
138	181
150	84
151	147
180	9999
181	951
182	118
