Mass Spectrum: Musk ambrette (artificial)
Formula: C12 H16 N2 O5
CAS: 83-66-9
Molecular weight: 268
Origin: Japan AIST/NIMC Database- Spectrum MS-IW- 647
m/z	RELATIVE INTENSITY
15	10
27	70
28	99
29	159
30	50
38	10
39	189
40	30
41	329
42	40
43	339
44	10
45	10
50	40
51	149
52	50
53	149
54	40
55	119
56	30
57	309
58	20
59	20
62	20
63	129
64	50
65	209
66	70
67	349
68	149
69	109
70	20
71	30
73	10
74	20
75	40
76	40
77	369
78	139
79	279
80	80
81	70
82	30
83	30
85	10
86	10
87	20
88	10
89	129
90	50
91	629
92	139
93	129
94	109
95	80
96	60
97	10
98	10
99	20
101	20
102	60
103	199
104	189
105	259
106	329
107	179
108	80
109	40
110	30
111	10
113	20
115	319
116	169
117	249
118	219
119	219
120	319
121	179
122	99
123	30
124	10
127	70
128	159
129	90
130	99
131	209
132	189
133	139
134	259
135	249
136	80
137	40
138	10
141	10
142	10
143	20
144	90
145	359
146	399
147	169
148	249
149	70
150	259
151	40
152	10
157	10
158	40
159	109
160	179
161	129
162	80
163	80
164	80
165	70
166	10
172	20
173	30
174	70
175	50
176	259
177	70
178	149
179	20
188	20
189	30
190	70
191	60
192	99
193	90
194	10
203	10
204	20
205	30
206	30
207	10
208	10
218	60
219	169
220	30
221	50
222	10
223	719
224	80
225	40
234	109
235	30
236	20
237	70
238	40
239	20
251	1129
252	179
253	9999
254	1299
255	179
256	10
268	4429
269	649
270	90
