Mass Spectrum: Cyclododecanone
Formula: C12 H22 O
CAS: 830-13-7
Molecular weight: 182
Origin: Japan AIST/NIMC Database- Spectrum MS-NW-4529
m/z	RELATIVE INTENSITY
14	10
15	149
16	10
17	40
18	189
26	139
27	2489
28	969
29	3249
30	70
31	119
32	40
34	20
36	10
37	10
38	60
39	2389
40	549
41	9159
42	3179
43	4159
44	159
45	129
46	20
47	40
48	60
49	10
50	60
51	159
52	99
53	899
54	1699
55	9399
56	3709
57	1759
58	9999
59	3029
60	129
61	10
62	10
63	40
64	10
65	179
66	259
67	2289
68	2359
69	4359
70	2409
71	9649
72	959
73	90
74	10
75	10
76	10
77	169
78	159
79	1029
80	1149
81	2419
82	4229
83	3499
84	2979
85	1139
86	349
87	40
88	10
89	10
91	109
92	70
93	909
94	799
95	1549
96	2009
97	3399
98	5779
99	859
100	589
101	50
104	10
105	30
106	20
107	699
108	739
109	569
110	349
111	4249
112	1389
113	389
114	509
115	50
116	10
117	10
119	10
120	20
121	709
122	1419
123	339
124	1899
125	2489
126	699
127	339
128	60
129	10
133	10
134	10
135	809
136	199
137	50
138	99
139	1549
140	289
141	129
142	10
149	329
150	40
151	10
153	289
154	189
155	20
162	10
163	20
164	229
165	30
166	10
167	269
168	40
169	10
180	10
181	20
182	3419
183	499
184	50
