Mass Spectrum: Benzenamine, 4-(2-phenylethenyl)-
Formula: C14 H13 N
CAS: 834-24-2
Molecular weight: 195
m/z	RELATIVE INTENSITY
39	170
50	110
51	200
52	110
63	200
65	170
76	100
77	170
89	220
90	200
93	170
97	210
98	100
115	160
117	210
118	100
128	120
139	140
151	120
152	300
165	550
166	190
167	240
176	200
177	450
178	470
179	160
180	580
192	100
193	1000
194	2250
195	9999
196	1020
197	130
