Mass Spectrum: N-(4-Acetylphenyl)-2,5-dimethylpyrrole
Formula: C14 H15 N O
CAS: 83935-45-9
Molecular weight: 213
Origin: NIST Mass Spectrometry Data Center, 1994
m/z	RELATIVE INTENSITY
14	71
15	1314
17	53
18	74
26	90
27	1294
28	237
37	52
38	271
39	1429
40	204
41	508
42	855
43	8135
44	205
50	1732
51	1799
52	842
53	1015
54	102
57	33
59	321
61	36
62	280
63	844
64	374
65	709
66	220
67	198
68	55
69	48
71	138
72	203
73	128
74	321
75	596
76	1372
77	1563
78	388
79	153
80	60
83	53
84	780
85	169
86	61
87	84
88	96
89	594
90	346
91	755
93	180
94	284
95	31
99	1484
101	173
102	493
103	283
104	176
105	107
106	31
113	60
114	110
115	472
116	181
117	334
118	109
119	114
120	30
125	29
126	166
127	690
128	1185
129	867
130	545
131	179
139	129
140	146
141	284
142	194
143	157
144	87
145	29
146	59
152	144
153	343
154	1984
155	1012
156	951
157	719
158	102
160	115
165	58
166	234
167	1128
168	1496
169	1224
170	3780
171	530
172	55
182	38
184	55
196	102
198	848
199	124
212	9999
213	9810
214	1406
215	141
