Mass Spectrum: Naphtho(2,3-h)quinoline
Formula: C17 H11 N
CAS: 84-56-0
Molecular weight: 229
Origin: Organic Synthesis Lab, MSU, Moscow.TRC 203q
m/z	RELATIVE INTENSITY
44	10
63	110
67	110
74	160
75	240
76	170
77	20
81	10
85	110
86	110
87	500
88	571
98	110
100	1521
114	2853
149	110
150	140
151	110
174	130
175	160
176	160
177	90
189	90
198	110
199	150
200	621
201	661
202	440
203	190
218	20
219	40
225	140
226	310
227	951
228	1391
229	9999
230	1802
231	160
