Mass Spectrum: 4-Diethylaminophenyl isothiocyanate
Formula: C11 H14 N2 S
CAS: 84381-54-4
Molecular weight: 206
Origin: NIST Mass Spectrometry Data Center
m/z	RELATIVE INTENSITY
15	100
17	20
18	40
26	130
27	1351
28	320
29	1812
30	90
32	20
37	50
38	140
39	350
40	70
41	80
42	220
44	150
45	20
47	10
50	370
51	470
52	220
53	60
54	50
55	20
56	70
57	10
58	40
60	10
61	30
62	140
63	561
64	370
65	180
66	30
67	50
68	20
69	70
70	160
71	20
72	30
74	70
75	340
76	330
77	691
78	270
79	100
81	100
82	30
83	70
84	50
85	10
88	70
89	160
90	911
91	270
92	110
93	40
94	30
95	70
96	70
97	30
99	10
102	380
103	460
104	530
105	921
106	120
107	220
108	80
109	90
110	10
115	10
116	80
117	180
118	821
119	440
120	60
121	70
122	130
123	20
128	30
129	130
130	100
131	350
132	310
133	621
134	1641
135	731
136	310
137	50
142	10
143	30
144	10
145	40
146	30
147	120
148	230
149	180
150	60
151	10
159	200
161	1772
162	1291
163	3873
164	430
165	190
166	20
173	10
174	50
175	230
176	250
177	270
178	30
189	40
191	9999
192	1241
193	490
194	60
206	5335
207	741
208	280
209	30
