Mass Spectrum: Naphthalene, 1-bromo-
Formula: C10 H7 Br
CAS: 90-11-9
Molecular weight: 206
Origin: Chemical Concepts
m/z	RELATIVE INTENSITY
27	71
29	35
30	4
36	9
37	71
38	110
39	184
40	29
41	9
42	14
43	18
49	72
50	784
51	781
52	100
53	31
55	17
56	11
57	10
60	21
61	240
62	471
63	1777
64	203
65	20
73	79
74	826
75	921
76	591
77	1148
78	110
79	45
80	30
81	25
82	18
84	25
85	99
86	187
87	289
88	59
89	25
90	174
91	158
97	41
98	278
99	298
100	220
101	730
102	125
103	943
104	860
105	17
109	14
110	15
111	12
114	12
115	10
116	20
117	20
119	17
120	14
121	18
122	61
123	20
124	16
125	174
126	1750
127	9999
128	1199
129	58
135	9
141	12
143	19
144	11
155	10
156	10
203	12
205	22
206	7495
207	913
208	7455
209	900
210	47
