Mass Spectrum: 1,2-Dimethoxy-3,6-dichloro-benzene
Formula: C8 H8 Cl2 O2
CAS: 90283-02-6
Molecular weight: 206
Origin: ASES Database, Dalian Institute, P.R. China
m/z	RELATIVE INTENSITY
43	180
50	1111
62	690
63	610
75	890
84	410
85	1721
87	190
97	1090
99	2412
100	300
109	580
111	710
113	1611
120	880
127	3463
128	5124
129	1201
130	1591
133	690
135	390
141	800
145	500
148	3072
150	1981
152	300
160	400
163	1301
191	7586
193	4794
195	790
206	9999
208	6515
210	980
