Mass Spectrum: Naphthalene, 2-methyl-
Formula: C11 H10
CAS: 91-57-6
Molecular weight: 142
Origin: NIST Mass Spectrometry Data Center, 1998.
m/z	RELATIVE INTENSITY
26	30
27	80
37	20
38	70
39	280
40	10
41	20
43	10
49	20
50	290
51	350
52	80
53	20
55	20
57	520
61	80
62	290
63	680
64	80
65	190
66	10
70	330
71	530
73	30
74	290
75	260
76	150
77	130
78	20
84	10
85	50
86	170
87	250
88	110
89	480
90	40
91	120
92	10
97	10
98	90
99	50
100	30
101	60
102	110
103	20
109	20
110	40
111	50
112	10
113	240
114	140
115	3600
116	380
117	10
122	10
125	10
126	170
127	70
128	10
137	40
138	70
139	1110
140	240
141	8319
142	9999
143	1140
144	60
