Mass Spectrum: Proflavine
Formula: C13 H11 N3
CAS: 92-62-6
Molecular weight: 209
Origin: NIST Mass Spectrometry Data Center, 1994
m/z	RELATIVE INTENSITY
44	100
63	182
64	118
74	81
75	107
77	495
78	168
89	114
91	721
101	104
105	539
126	109
127	243
128	188
140	113
152	143
153	194
154	530
155	234
164	171
165	180
166	92
179	233
181	1969
182	3254
183	426
191	171
192	149
206	132
207	265
209	9999
210	1468
