Mass Spectrum: L-Isoleucine, ethyl ester
Formula: C8 H17 N O2
CAS: 921-74-4
Molecular weight: 159
Origin: R RYHAGE MS-LAB KAROLINSKA INSTITUTET STOCKHOLM SWEDEN
m/z	RELATIVE INTENSITY
15	160
17	130
18	670
26	170
27	1060
29	1760
30	2100
31	160
39	420
41	1160
42	290
43	380
44	1680
45	160
46	950
53	100
54	150
55	220
56	890
57	880
58	280
69	1340
70	410
74	2130
75	160
84	130
86	9999
87	660
102	1900
103	240
149	110
