Mass Spectrum: Hexanal, 2-methyl-
Formula: C7 H14 O
CAS: 925-54-2
Molecular weight: 114
Origin: CARL DJERASSI DEPT OF CHEM STANFORD UNIV STANFORD CALIF 94305
m/z	RELATIVE INTENSITY
27	1485
28	396
29	1881
30	99
39	1089
40	99
41	2772
42	396
43	8019
44	297
53	198
55	891
56	297
57	2475
58	9999
59	396
71	594
72	594
81	198
85	495
97	198
114	198
