Mass Spectrum: Benzoic acid, ethyl ester
Formula: C9 H10 O2
CAS: 93-89-0
Molecular weight: 150
Origin: Japan AIST/NIMC Database- Spectrum MS-NW- 439
m/z	RELATIVE INTENSITY
15	40
17	10
18	30
26	70
27	379
28	50
29	329
30	10
31	20
37	30
38	60
39	119
40	10
42	10
43	40
44	80
45	149
49	30
50	539
51	1599
52	99
53	20
62	20
63	20
65	70
66	10
73	30
74	159
75	119
76	239
77	4059
78	399
79	40
91	90
92	10
93	10
94	30
103	20
104	50
105	9999
106	909
107	70
121	10
122	3069
123	259
124	20
131	10
132	70
133	20
135	99
136	10
149	169
150	2179
151	229
152	20
