Mass Spectrum: 2-Cyclohexen-1-one
Formula: C6 H8 O
CAS: 930-68-7
Molecular weight: 96
Origin: NIST Mass Spectrometry Data Center, 1990.
m/z	RELATIVE INTENSITY
14	28
15	106
26	441
27	1259
28	511
29	118
31	103
32	70
37	296
38	737
39	3283
40	2805
41	872
42	1179
49	79
50	322
51	354
52	147
53	595
54	171
55	597
61	110
62	162
63	174
65	231
66	159
68	9999
69	452
96	2530
97	152
