Mass Spectrum: Propanoic acid, 2-methyl-, anhydride
Formula: C8 H14 O3
CAS: 97-72-3
Molecular weight: 158
Origin: Japan AIST/NIMC Database- Spectrum MS-NW- 926
m/z	RELATIVE INTENSITY
14	10
15	149
17	10
18	20
25	10
26	149
27	1459
28	289
29	80
31	10
32	10
37	50
38	90
39	789
40	219
41	2089
42	539
43	8799
44	289
45	80
53	20
55	90
56	30
57	70
59	10
60	10
68	10
69	10
70	319
71	9999
72	449
73	169
