Mass Spectrum: 1-Butanol, 2-ethyl-
Formula: C6 H14 O
CAS: 97-95-0
Molecular weight: 102
Origin: NIST Mass Spectrometry Data Center, 1990.
m/z	RELATIVE INTENSITY
14	45
15	156
16	2
18	101
19	86
26	271
27	2443
28	914
29	2686
30	2
31	1853
32	156
37	47
38	141
39	1769
40	328
41	3620
42	1644
43	9999
44	474
45	291
50	96
51	200
52	66
53	413
54	47
55	3447
56	1622
57	477
59	120
65	45
67	89
69	1499
70	3821
71	2745
72	234
84	981
85	78
