Mass Spectrum: Furfural
Formula: C5 H4 O2
CAS: 98-01-1
Molecular weight: 96
Origin: NIST Mass Spectrometry Data Center, 1990.
m/z	RELATIVE INTENSITY
12	78
13	110
14	121
17	28
18	40
24	64
25	224
26	227
27	95
28	290
29	2018
34	59
36	262
37	1513
38	2268
39	6446
40	696
41	237
42	533
44	63
48	96
49	223
50	289
51	332
52	97
53	198
66	171
67	1140
68	187
69	69
95	9915
96	9999
97	577
98	55
