Mass Spectrum: Dibenzothiophene, 5-oxide
Formula: C12 H8 O S
CAS: 1013-23-6
Molecular weight: 200
m/z	RELATIVE INTENSITY
44	299
49	40
50	100
51	199
62	100
63	199
69	199
74	159
75	159
79	359
82	60
86	100
87	100
89	100
91	159
92	598
93	100
94	60
118	20
138	60
139	896
140	159
150	40
151	60
152	299
168	199
171	856
172	498
173	60
182	159
183	199
184	9999
185	797
186	239
200	1155
201	199
202	63
