Mass Spectrum: Bentranil
Formula: C14 H9 N O2
CAS: 1022-46-4
Molecular weight: 223
Origin: Chemical Concepts
m/z	RELATIVE INTENSITY
25	2
26	35
27	209
28	45
29	4
37	80
38	182
39	563
40	24
41	9
42	5
43	1
44	3
45	2
49	20
50	1286
51	1964
52	136
53	62
54	4
55	1
56	2
57	2
59	1
60	2
61	39
62	145
63	434
64	334
65	53
66	5
69	5
70	6
71	1
73	25
74	303
75	344
76	864
77	6174
78	360
79	12
83	7
84	18
85	4
86	18
87	32
88	40
89	56
90	1243
91	101
92	51
93	5
97	3
98	34
99	7
100	8
101	11
102	45
103	94
104	46
105	7202
106	512
107	29
111	4
112	34
113	16
114	14
115	22
116	7
117	13
118	63
119	15
120	11
121	1
125	4
126	16
127	16
128	17
129	1
130	19
137	4
138	9
139	74
140	66
141	9
145	2
146	1776
147	156
148	10
149	2
150	12
151	74
152	114
153	53
154	7
164	17
165	8
166	78
167	115
168	15
169	4
176	8
177	32
178	239
179	4307
180	640
181	50
182	6
193	3
194	27
195	248
196	34
222	301
223	9999
224	1698
225	170
226	12
