Mass Spectrum: Butane, 1,2-dibromo-3-methyl-
Formula: C5 H10 Br2
CAS: 10288-13-8
Molecular weight: 228
Origin: Chemical Concepts
m/z	RELATIVE INTENSITY
25	24
26	447
27	2716
29	1260
30	34
31	10
36	47
37	128
38	345
39	2342
40	378
41	2965
42	1433
43	6705
44	419
45	38
46	8
47	8
48	10
49	51
50	309
51	586
52	174
53	1723
54	282
55	1845
56	219
57	283
58	23
59	23
60	27
61	48
62	50
63	88
64	21
65	112
66	35
67	460
68	109
69	9999
70	1126
71	183
72	22
73	53
74	31
75	14
76	10
77	34
78	15
79	157
80	293
81	125
82	243
83	105
84	33
85	79
86	12
87	23
88	9
89	10
90	5
91	87
92	47
93	179
94	62
95	135
96	48
97	125
98	44
99	44
100	13
101	18
102	12
103	14
104	45
105	297
106	521
107	775
108	540
109	770
110	30
111	61
112	41
113	45
114	10
115	37
116	7
117	19
118	13
119	75
120	20
121	167
122	18
123	122
124	31
125	38
126	20
127	20
128	26
129	36
130	21
131	21
132	14
133	385
134	33
135	501
136	21
137	23
138	21
139	31
140	11
142	16
143	14
144	8
145	33
146	16
147	56
148	20
149	7348
150	561
151	7250
152	543
153	21
189	1
228	61
229	19
230	94
231	10
232	62
233	16
234	10
