Mass Spectrum: Benzene, 1,4-dibutoxy-
Formula: C14 H22 O2
CAS: 104-36-9
Molecular weight: 222
Origin: RADIAN CORP
m/z	RELATIVE INTENSITY
29	460
39	120
41	530
53	90
54	70
55	130
56	90
57	370
58	10
63	10
64	30
65	190
66	30
76	20
81	230
82	110
93	100
95	30
107	20
109	570
110	9999
111	660
112	50
123	120
166	470
167	40
179	30
222	850
223	120
