Mass Spectrum: Oxazole, 2-ethyl-4,5-dihydro-
Formula: C5 H9 N O
CAS: 10431-98-8
Molecular weight: 99
Origin: Chemical Concepts
m/z	RELATIVE INTENSITY
26	611
27	1990
28	412
29	1707
30	160
37	121
38	192
39	723
40	471
41	2612
42	1311
43	679
44	690
51	97
52	260
53	119
54	4504
55	1143
56	508
57	414
58	74
67	274
68	1230
69	9999
70	1167
71	81
72	82
97	228
98	5452
99	7516
100	440
