Mass Spectrum: Testosterone acetate
Formula: C21 H30 O3
CAS: 1045-69-8
Molecular weight: 330
Origin: Japan AIST/NIMC Database- Spectrum MS-NW-7361
m/z	RELATIVE INTENSITY
15	109
17	20
18	90
26	10
27	279
28	40
29	449
31	40
38	10
39	599
40	109
41	1909
42	99
43	7159
44	189
45	139
47	10
50	20
51	209
52	139
53	929
54	129
55	2029
56	109
57	259
58	30
59	10
60	119
61	20
62	10
63	80
64	50
65	609
66	259
67	1599
68	189
69	479
70	40
71	149
72	20
73	10
74	10
75	20
76	40
77	1939
78	459
79	2819
80	479
81	1749
82	229
83	429
84	90
85	80
86	70
87	30
89	60
90	40
91	3449
92	659
93	2629
94	1139
95	2049
96	419
97	689
98	70
99	50
100	30
101	40
102	60
103	339
104	309
105	2879
106	799
107	2279
108	769
109	1719
110	569
111	629
112	60
113	60
114	30
115	499
116	239
117	939
118	429
119	1979
120	799
121	1539
122	1169
123	2539
124	9999
125	1149
126	90
127	109
128	359
129	559
130	249
131	1819
132	809
133	2549
134	1889
135	1079
136	709
137	1029
138	349
139	80
140	20
141	209
142	199
143	569
144	729
145	1499
146	3039
147	8839
148	2189
149	1199
150	239
151	239
152	80
153	99
154	70
155	189
156	129
157	559
158	419
159	1089
160	649
161	899
162	579
163	419
164	169
165	689
166	139
167	90
168	50
169	169
170	129
171	499
172	469
173	599
174	539
175	429
176	299
177	249
178	70
179	80
180	40
181	119
182	60
183	199
184	119
185	2069
186	599
187	719
188	329
189	289
190	109
191	50
192	40
193	60
194	30
195	119
196	70
197	219
198	109
199	599
200	419
201	349
202	179
203	349
204	99
205	70
206	219
207	169
208	50
209	119
210	70
211	259
212	119
213	1519
214	429
215	279
216	109
217	99
218	30
219	30
220	30
221	60
222	30
223	70
224	90
225	109
226	199
227	689
228	5049
229	1219
230	909
231	339
232	179
233	50
234	50
235	40
236	20
237	269
238	70
239	40
240	30
241	169
242	309
243	189
244	139
245	1749
246	1369
247	279
248	99
249	30
250	30
251	109
252	409
253	279
254	90
255	919
256	209
257	50
258	20
259	99
260	149
261	30
262	30
263	10
264	20
265	10
266	20
267	20
268	139
269	209
270	2089
271	659
272	139
273	499
274	169
275	40
276	10
283	10
284	20
285	20
286	129
287	309
288	5359
289	1099
290	139
291	10
297	30
301	50
302	269
303	60
304	10
312	139
313	40
314	20
315	289
316	80
317	10
326	10
328	80
329	40
330	6409
331	1609
332	259
333	20
