Mass Spectrum: 3,5-Dimethoxyphenyl isothiocyanate
Formula: C9 H9 N O2 S
CAS: 104968-58-3
Molecular weight: 195
Origin: NIST Mass Spectrometry Data Center, 1994
m/z	RELATIVE INTENSITY
13	57
14	321
15	3082
16	47
26	232
27	295
28	285
29	646
30	114
31	100
32	296
37	407
38	1167
39	997
40	125
41	227
42	142
43	123
44	185
45	329
49	169
50	1177
51	1986
52	459
53	630
54	155
55	113
56	93
57	99
58	209
59	228
60	61
61	481
62	1374
63	3065
64	952
65	1148
66	1000
67	207
68	61
69	1246
70	766
71	135
72	210
73	69
74	321
75	468
76	468
77	2819
78	768
79	1716
80	330
81	125
82	503
83	1133
84	221
85	115
86	373
87	91
88	158
89	138
90	368
91	458
92	444
93	398
94	484
95	251
96	260
97	91
98	550
99	46
102	73
103	363
104	165
105	122
106	108
107	682
108	3572
109	2293
110	263
111	204
112	30
117	47
118	45
119	61
120	378
121	346
122	1569
123	201
124	235
125	102
132	52
133	177
134	444
135	1954
136	1427
137	1064
138	163
139	101
148	48
149	253
150	155
151	251
152	1586
153	141
154	80
162	97
163	193
164	289
165	752
166	3588
167	376
168	190
178	50
179	71
195	9999
196	1050
197	547
198	47
