Mass Spectrum: Methyl acetoacetate
Formula: C5 H8 O3
CAS: 105-45-3
Molecular weight: 116
Origin: NIST Mass Spectrometry Data Center, 1990.
m/z	RELATIVE INTENSITY
12	18
13	115
14	340
15	1654
16	12
17	32
18	75
19	23
24	21
25	85
26	410
27	846
28	174
29	1600
30	206
31	1015
32	488
33	56
36	32
37	120
38	164
39	285
40	88
41	492
42	2005
43	9999
45	170
52	20
53	69
54	26
55	136
56	99
57	277
58	158
59	1221
60	26
69	1303
70	45
71	20
74	810
75	61
84	755
85	1131
86	192
87	20
88	523
89	34
99	33
101	591
102	31
116	946
117	55
