Mass Spectrum: Benzene, 1,4-dichloro-
Formula: C6 H4 Cl2
CAS: 106-46-7
Molecular weight: 146
Origin: Chuck Anderson, Aldrich Chemical Co.
m/z	RELATIVE INTENSITY
25	14
26	44
27	33
35	43
36	72
37	411
38	326
39	52
47	59
48	42
49	298
50	1429
51	435
52	15
54	32
55	463
56	148
60	113
61	191
62	101
63	94
71	11
72	91
73	691
74	1155
75	1761
76	191
83	6
84	151
85	168
86	79
87	47
96	9
97	29
99	7
107	8
108	29
109	112
110	179
111	2689
112	222
113	880
114	51
120	19
122	6
145	58
146	9999
147	563
148	6249
149	333
150	994
151	53
