Mass Spectrum: Dodecanoic acid, ethyl ester
Formula: C14 H28 O2
CAS: 106-33-2
Molecular weight: 228
Origin: Japan AIST/NIMC Database- Spectrum MS-NW- 459
m/z	RELATIVE INTENSITY
14	40
15	60
16	40
17	20
18	70
19	10
26	109
27	769
28	309
29	1999
30	60
31	109
32	10
36	20
38	30
39	419
40	149
41	1849
42	519
43	2069
44	589
45	639
46	30
47	20
48	20
50	20
51	60
52	20
53	129
54	159
55	1519
56	389
57	1309
58	70
59	109
60	1199
61	1379
62	40
63	30
64	30
65	30
66	40
67	269
68	299
69	959
70	1279
71	519
72	60
73	1619
74	269
75	70
77	60
78	40
79	80
80	30
81	209
82	99
83	569
84	369
85	339
86	80
87	279
88	9999
89	1119
90	99
91	60
92	30
93	50
94	20
95	199
96	80
97	429
98	389
99	90
100	20
101	4669
102	399
103	50
104	20
105	50
106	119
107	50
108	20
109	99
110	50
111	139
112	90
113	60
114	20
115	549
116	80
117	20
119	20
120	50
121	80
123	50
124	20
125	80
126	40
127	20
128	20
129	349
130	99
131	20
134	10
135	50
136	20
137	30
138	40
139	40
140	50
141	20
143	559
144	109
147	10
149	30
150	20
153	40
155	40
157	959
158	109
159	20
163	50
164	10
165	20
167	20
171	179
172	40
181	50
182	30
183	1319
184	179
185	729
186	129
199	259
200	70
201	50
227	20
228	829
229	129
230	30
