Mass Spectrum: Butane, 1,4-dibromo-
Formula: C4 H8 Br2
CAS: 110-52-1
Molecular weight: 214
Origin: Japan AIST/NIMC Database- Spectrum MS-NW- 921
m/z	RELATIVE INTENSITY
14	30
15	90
18	20
25	50
26	689
27	3949
28	949
29	2709
30	60
36	10
37	90
38	199
39	1689
40	129
41	1519
42	99
43	10
49	70
50	179
51	199
52	80
53	699
54	239
55	9999
56	509
57	20
67	10
68	10
69	10
79	109
80	139
81	119
82	119
91	50
92	10
93	209
94	10
95	209
105	40
106	209
107	689
108	219
109	619
110	10
119	40
121	30
133	10
134	379
135	4189
136	569
137	3989
138	169
214	20
216	40
218	20
