Mass Spectrum: Octadecanoic acid, ethenyl ester
Formula: C20 H38 O2
CAS: 111-63-7
Molecular weight: 310
Origin: Japan AIST/NIMC Database- Spectrum MS-NW-1932
m/z	RELATIVE INTENSITY
15	40
17	10
18	30
26	20
27	489
28	309
29	1119
30	20
31	10
32	60
39	249
40	60
41	2629
42	659
43	4449
44	149
45	30
51	10
53	129
54	249
55	3079
56	809
57	5969
58	429
59	80
60	20
65	30
66	20
67	769
68	259
69	2099
70	599
71	3949
72	229
73	30
74	10
77	30
78	10
79	119
80	50
81	1029
82	319
83	2069
84	519
85	2619
86	1029
87	269
88	10
91	139
92	219
93	99
94	40
95	1659
96	309
97	1709
98	539
99	709
100	60
101	10
104	10
105	40
106	10
107	70
108	20
109	1089
110	179
111	879
112	239
113	409
114	60
115	20
116	10
117	10
119	20
120	10
121	109
122	20
123	659
124	109
125	369
126	139
127	249
128	60
129	20
133	30
135	90
136	20
137	399
138	80
139	159
140	139
141	159
142	30
143	10
147	10
149	60
150	20
151	149
152	50
153	109
154	149
155	119
156	20
157	10
163	30
164	10
165	90
166	40
167	90
168	129
169	90
170	20
171	10
177	20
178	10
179	50
180	20
181	50
182	119
183	70
184	10
185	10
191	10
192	10
193	50
194	20
195	30
196	129
197	50
198	10
205	10
207	20
208	10
209	20
210	119
211	60
212	10
219	10
221	20
222	20
223	20
224	99
225	50
232	10
233	10
235	20
236	10
237	30
238	99
239	1419
240	309
241	30
245	10
246	10
247	50
248	30
249	139
250	40
251	20
252	20
253	179
254	50
259	10
262	10
263	20
264	50
265	119
266	479
267	9999
268	2069
269	209
270	10
281	10
309	10
310	10
