Mass Spectrum: 9-Octadecenoic acid (Z)-, methyl ester
Formula: C19 H36 O2
CAS: 112-62-9
Molecular weight: 296
Origin: NIST Mass Spectrometry Data Center
m/z	RELATIVE INTENSITY
15	70
26	20
27	350
28	100
29	901
30	30
31	40
33	10
39	761
40	180
41	4634
42	1031
43	3793
44	140
45	190
50	10
51	60
52	50
53	771
54	2002
55	9999
56	2192
57	1952
58	120
59	2082
60	70
61	20
62	10
63	10
64	10
65	270
66	200
67	3173
68	1712
69	6566
70	1611
71	861
72	100
73	510
74	5355
75	731
76	50
77	250
78	90
79	851
80	410
81	2843
82	1972
83	5165
84	3793
85	881
87	4214
88	390
89	30
91	250
92	70
93	530
94	550
95	2692
96	4364
97	5125
98	3613
99	500
100	110
101	751
102	90
103	20
104	10
105	130
106	60
107	400
108	390
109	1571
110	2342
111	2392
112	891
113	390
114	470
115	771
116	120
117	20
118	30
119	360
120	140
121	581
122	250
123	1641
124	1271
125	1331
126	280
127	390
128	550
129	571
130	160
131	30
132	20
133	350
134	340
135	550
136	180
137	1021
138	1021
139	831
140	140
141	771
142	150
143	530
144	80
145	20
146	10
147	260
148	290
149	380
150	160
151	731
152	891
153	470
154	80
155	190
156	40
157	180
158	40
159	10
161	200
162	100
163	210
164	150
165	470
166	681
167	290
168	60
169	280
170	50
171	120
172	30
173	10
175	170
176	50
177	110
178	60
179	280
180	1301
181	330
182	60
183	190
184	30
185	90
186	30
187	10
189	100
190	30
191	50
192	30
193	230
194	240
195	90
196	30
197	50
198	10
199	130
200	70
201	10
203	50
204	20
205	20
206	20
207	240
208	180
209	90
210	30
211	20
212	10
213	110
214	70
215	10
217	30
218	10
220	490
221	470
222	1641
223	360
224	40
225	20
227	40
228	40
229	10
231	10
233	10
235	300
236	190
237	30
239	20
240	10
241	20
245	20
246	180
247	80
248	10
249	50
250	10
253	120
254	20
255	10
264	2873
265	1942
266	340
267	60
268	10
278	40
279	10
294	10
296	601
297	150
298	20
