Mass Spectrum: Cyclopentanone, 2-methyl-
Formula: C6 H10 O
CAS: 1120-72-5
Molecular weight: 98
Origin: NIST Mass Spectrometry Data Center, 1990.
m/z	RELATIVE INTENSITY
14	53
15	142
26	523
27	719
28	1204
29	626
37	194
38	520
39	3142
40	974
41	4619
42	9999
43	1208
50	343
51	362
52	163
53	700
54	768
55	7302
56	2300
57	215
62	101
63	103
65	113
67	227
69	4507
70	2577
71	159
79	209
80	537
83	1518
98	5434
99	344
