Mass Spectrum: 2-Cyclohexen-1-one, 3,5-dimethyl-
Formula: C8 H12 O
CAS: 1123-09-7
Molecular weight: 124
Origin: NIST Mass Spectrometry Data Center, 1990.
m/z	RELATIVE INTENSITY
15	130
26	143
27	1106
28	291
29	293
38	342
39	3083
40	371
41	942
42	375
50	266
51	485
52	286
53	981
54	2714
55	362
63	138
65	225
67	517
69	123
77	279
79	387
82	9999
83	587
95	90
109	363
124	1996
125	152
