Mass Spectrum: Benzenamine, 4-(phenylmethyl)-
Formula: C13 H13 N
CAS: 1135-12-2
Molecular weight: 183
Origin: Japan AIST/NIMC Database- Spectrum MS-IW-4866
m/z	RELATIVE INTENSITY
26	20
27	99
28	109
29	10
30	179
37	10
38	40
39	319
40	40
41	99
42	60
43	20
44	20
50	129
51	379
52	219
53	199
54	149
55	30
56	20
57	10
58	10
60	10
61	20
62	80
63	279
64	119
65	489
66	129
67	40
69	30
70	30
71	20
72	10
73	10
74	60
75	90
76	229
77	969
78	399
79	429
80	149
81	30
82	80
83	139
84	60
85	10
86	30
87	40
88	20
89	279
90	709
91	679
92	139
93	149
94	30
98	10
99	10
100	10
101	30
102	80
103	50
104	469
105	299
106	6629
107	1679
108	119
113	30
114	50
115	349
116	80
117	90
118	20
119	10
120	10
122	10
125	10
126	60
127	169
128	209
129	99
130	60
134	40
138	10
139	139
140	70
141	179
142	40
143	40
149	10
150	30
151	109
152	519
153	439
154	169
155	199
156	70
157	10
158	10
162	10
163	99
164	149
165	1639
166	529
167	1439
168	1079
169	219
170	20
178	30
179	20
180	929
181	509
182	6629
183	9999
184	1399
185	90
