Mass Spectrum: Phenglutarimide
Formula: C17 H24 N2 O2
CAS: 1156-05-4
Molecular weight: 288
Origin: Finnigan MAT: Toxicological Library (LIBR-TX)
m/z	RELATIVE INTENSITY
42	283
44	108
55	86
56	306
58	503
71	90
72	88
84	98
86	9999
87	511
91	105
99	295
100	292
115	103
117	101
161	106
216	600
273	107
288	200
