Mass Spectrum: 3,4-Hexanediol, 3,4-dimethyl-
Formula: C8 H18 O2
CAS: 1185-02-0
Molecular weight: 146
m/z	RELATIVE INTENSITY
41	400
42	100
43	5505
44	100
45	400
55	1802
56	300
57	1201
58	100
61	400
71	200
72	1201
73	9999
74	500
99	1301
113	300
117	801
131	100
146	300
