Mass Spectrum: Benzenemethanamine, N-ethyl-N-(3-methylphenyl)-
Formula: C16 H19 N
CAS: 119-94-8
Molecular weight: 225
Origin: MASS SPEC DATA COMPILATION OF PEST. AND IND. CHEMICALS, T. CAIRNS, FDA, USA
m/z	RELATIVE INTENSITY
65	1200
77	200
91	9999
92	1000
118	400
120	300
148	400
210	1100
211	200
225	800
226	200
