Mass Spectrum: Diethylene glycol dibenzoate
Formula: C18 H18 O5
CAS: 120-55-8
Molecular weight: 314
Origin: Japan AIST/NIMC Database- Spectrum MS-NW-5390
m/z	RELATIVE INTENSITY
17	10
18	20
27	129
28	90
29	60
31	80
32	10
39	70
42	119
43	50
44	40
45	70
50	229
51	929
52	60
70	619
74	60
75	70
76	219
77	3569
78	289
79	30
104	60
105	9999
106	819
107	50
120	30
122	129
123	30
149	8999
150	939
151	99
179	109
192	20
