Mass Spectrum: 4-Nonanone, 2,6,8-trimethyl-
Formula: C12 H24 O
CAS: 123-18-2
Molecular weight: 184
Origin: NIST Mass Spectrometry Data Center, 1990.
m/z	RELATIVE INTENSITY
27	870
28	78
29	1203
39	1305
40	436
41	4876
42	1219
43	4002
44	151
51	57
53	291
55	1213
56	1073
57	9999
58	5976
59	598
65	91
67	420
69	1459
70	126
71	555
72	512
79	69
81	100
83	2954
84	1852
85	5911
86	406
95	112
100	1483
101	1544
102	104
109	3060
110	286
113	108
127	2946
128	270
141	146
169	76
184	242
