Mass Spectrum: Propanoic acid, 2-oxo-
Formula: C3 H4 O3
CAS: 127-17-3
Molecular weight: 88
Origin: Japan AIST/NIMC Database- Spectrum MS-NW- 670
m/z	RELATIVE INTENSITY
12	70
13	159
14	499
15	2239
16	80
17	119
18	399
24	30
25	109
26	169
27	119
28	749
29	509
30	10
31	60
36	20
37	60
38	70
39	309
40	209
41	249
42	919
43	9999
44	1849
45	1399
46	60
50	10
52	20
53	80
54	10
55	20
56	119
57	10
58	139
59	80
60	30
67	10
68	219
69	80
70	20
71	109
73	10
85	40
86	60
87	10
88	269
89	10
