Mass Spectrum: 2-Octenal, 2-butyl-
Formula: C12 H22 O
CAS: 13019-16-4
Molecular weight: 182
Origin: TNO Volatile Compounds in Food - Chemical Concepts
m/z	RELATIVE INTENSITY
25	22
26	251
27	5000
28	128
29	6687
30	145
31	316
32	28
33	24
34	236
36	66
38	100
39	3375
41	9999
42	1606
43	6143
44	391
45	192
46	38
50	103
51	479
52	211
53	1909
54	835
55	8804
56	1113
57	2959
58	263
59	233
60	37
63	103
64	20
65	585
66	271
67	3050
68	727
69	3377
70	1603
71	2995
72	205
73	195
74	41
75	24
77	735
78	183
79	2529
80	433
81	2496
82	1200
83	4112
84	1240
85	822
86	85
87	66
91	547
92	83
93	2331
94	402
95	3062
96	622
97	2430
98	1036
99	192
100	169
101	62
105	144
106	39
107	612
108	120
109	508
110	139
111	4871
112	752
113	201
114	28
115	22
116	28
119	16
121	859
122	402
123	100
124	123
125	2501
126	408
127	36
135	145
136	52
137	38
138	25
139	3582
140	504
141	61
147	44
148	18
149	64
151	126
153	206
154	28
167	84
181	52
182	3107
183	514
184	37
