Mass Spectrum: Deserpidine
Formula: C32 H38 N2 O8
CAS: 131-01-1
Molecular weight: 578
Origin: AAFS Toxicology Section MS DB Committee, U. Alberta, Canada
m/z	RELATIVE INTENSITY
41	590
42	460
43	1181
44	500
45	460
53	410
55	1181
57	790
59	740
60	430
65	540
66	480
67	1070
68	570
69	1421
70	520
71	1341
73	650
75	720
77	1511
78	610
79	990
81	1641
82	540
83	1271
84	520
85	940
91	790
92	540
93	940
94	630
95	1010
96	590
97	1271
98	760
103	500
104	520
105	790
107	790
109	1101
110	480
111	960
115	870
116	520
117	720
121	740
122	720
123	850
124	740
127	480
128	740
129	1581
130	1451
131	630
132	830
133	520
135	720
137	1981
138	460
139	610
141	830
142	990
143	1511
144	1731
151	680
152	1121
153	900
154	1291
155	900
156	2772
157	900
167	1341
168	1401
169	4243
170	2302
171	830
181	650
182	570
183	870
184	2702
185	740
195	9999
196	1491
197	2041
198	570
207	480
209	900
211	790
212	1101
219	460
221	3523
222	810
223	1401
224	1531
235	1141
236	500
237	920
249	790
265	520
267	790
269	540
273	540
275	630
288	460
293	740
307	1271
308	430
329	460
333	1931
334	590
335	4153
336	790
337	430
339	520
351	9768
352	3052
353	460
364	700
365	5394
366	3603
367	5745
368	1581
383	1231
384	430
547	460
563	920
577	2832
578	3162
579	1101
