Mass Spectrum: 1-Propene, 1,2,3-trichloro-, (Z)-
Formula: C3 H3 Cl3
CAS: 13116-57-9
Molecular weight: 144
Origin: NIST Mass Spectrometry Data Center, 1998.
m/z	RELATIVE INTENSITY
12	10
13	10
14	10
24	20
25	70
26	100
27	30
35	380
36	350
37	1180
38	1250
39	1440
40	50
47	450
48	280
49	1030
50	100
51	290
53	30
54	70
55	40
59	40
60	250
61	190
62	90
63	60
70	10
71	120
72	340
73	2490
74	370
75	810
76	80
82	40
83	2450
84	50
85	1580
86	20
87	250
94	30
95	150
96	20
97	100
98	10
99	20
106	10
107	180
108	70
109	9999
110	360
111	6339
112	210
113	1020
114	40
143	50
144	2050
145	120
146	1940
147	90
148	620
149	20
150	70
