Mass Spectrum: 1-Methyl-3-pyrrolidinol
Formula: C5 H11 N O
CAS: 13220-33-2
Molecular weight: 101
Origin: Chuck Anderson, Aldrich Chemical Co.
m/z	RELATIVE INTENSITY
14	40
15	584
18	117
26	178
27	712
28	893
29	725
30	396
31	260
38	56
39	312
40	178
41	732
42	6397
43	846
44	2069
45	93
50	32
51	40
52	45
53	72
54	146
55	230
56	152
57	9999
58	678
59	15
67	191
68	50
69	39
70	124
71	69
72	90
73	62
80	88
81	34
82	934
83	114
84	105
86	16
98	63
100	463
101	3494
102	186
