Mass Spectrum: Benzenamine, 2-bromo-4-nitro-
Formula: C6 H5 Br N2 O2
CAS: 13296-94-1
Molecular weight: 216
Origin: D.HENNEBERG, MAX-PLANCK INSTITUTE, MULHEIM, WEST GERMANY
m/z	RELATIVE INTENSITY
27	546
28	2105
29	52
30	964
31	9
36	21
38	267
39	729
40	260
41	1077
42	99
43	44
44	523
46	31
49	12
50	89
51	540
52	3153
53	453
54	102
55	42
56	12
57	26
58	5
59	9
60	5
61	14
62	295
63	3150
64	2293
65	1153
66	132
67	55
68	21
69	28
70	17
71	17
74	61
75	58
76	94
77	110
78	739
79	555
80	286
81	54
82	138
83	13
85	12
87	4
88	46
89	403
90	9999
91	6361
92	443
93	32
94	19
95	69
96	12
97	16
102	3
103	7
104	40
105	303
106	276
107	196
108	40
109	14
111	4
116	12
117	123
118	19
119	183
120	29
121	33
122	12
129	14
130	18
131	69
132	38
133	60
134	22
135	17
137	116
138	41
139	14
141	44
142	39
143	1302
144	133
145	1219
146	96
149	16
150	4
156	15
157	13
158	911
159	80
160	912
161	95
164	35
165	18
167	6
168	109
169	196
170	2043
171	349
172	1869
173	101
178	8
181	6
182	5
184	70
185	49
186	5694
187	416
188	5482
189	361
190	14
195	7
197	4
198	11
199	7
200	289
201	27
202	323
203	17
209	7
210	4
214	14
215	23
216	7943
217	591
218	7919
219	550
220	45
221	11
