Mass Spectrum: 2-Furancarbothioic acid, S-methyl ester
Formula: C6 H6 O2 S
CAS: 13679-61-3
Molecular weight: 142
m/z	RELATIVE INTENSITY
29	70
37	150
38	410
39	1591
45	410
47	220
52	70
53	70
54	70
67	330
81	70
95	9999
96	480
142	2622
143	200
144	130
