Mass Spectrum: 9,9-Dimethyl-9-silafluorene
Formula: C14 H14 Si
CAS: 13688-68-1
Molecular weight: 210
Origin: V.A.KOPTYUG, ATLAS OF MASS SPECTRA OF ORGANIC COMPOUNDS
m/z	RELATIVE INTENSITY
152	100
165	2500
166	200
180	100
181	600
193	500
194	200
195	9999
196	2100
197	500
210	6099
211	1300
212	200
