Mass Spectrum: 2,5-Dimethylbenzonitrile
Formula: C9 H9 N
CAS: 13730-09-1
Molecular weight: 131
Origin: Japan AIST/NIMC Database- Spectrum MS-NW-9667
m/z	RELATIVE INTENSITY
26	10
27	119
28	50
37	30
38	60
39	289
40	20
41	30
49	20
50	199
51	459
52	189
53	80
54	10
61	50
62	109
63	279
64	159
65	209
66	30
73	10
74	70
75	159
76	219
77	819
78	299
79	40
85	10
86	20
87	50
88	80
89	599
90	109
91	159
92	10
98	10
99	20
100	30
101	149
102	339
103	1259
104	639
105	80
114	50
115	40
116	9999
117	959
118	40
127	40
128	229
129	169
130	3709
131	8539
132	949
133	50
