Mass Spectrum: 3-(Phenylhydrazono)-2-butanone
Formula: C10 H12 N2 O
CAS: 13732-32-6
Molecular weight: 176
Origin: Japan AIST/NIMC Database- Spectrum MS-IW-3171
m/z	RELATIVE INTENSITY
14	20
15	279
26	30
27	109
28	119
29	10
30	10
37	50
38	189
39	899
40	139
41	189
42	509
43	7039
44	159
45	20
50	119
51	379
52	169
53	50
54	40
55	30
61	20
62	80
63	359
64	519
65	2909
66	349
67	20
69	10
70	10
71	90
74	30
75	20
76	30
77	639
78	109
79	30
88	10
90	40
91	699
92	9999
93	2239
94	149
99	50
103	10
104	20
105	60
106	229
107	50
117	10
118	30
119	10
120	10
131	20
132	40
133	859
134	99
135	10
147	10
159	10
161	30
175	90
176	9759
177	1159
178	80
