Mass Spectrum: Cyclopentanepropanoic acid
Formula: C8 H14 O2
CAS: 140-77-2
Molecular weight: 142
Origin: NIST Mass Spectrometry Data Center, 1990.
m/z	RELATIVE INTENSITY
14	439
27	1069
28	1267
29	737
32	290
39	2294
40	604
41	3737
42	923
43	667
45	1043
51	295
53	981
54	1214
55	4634
56	717
57	472
60	3098
61	451
65	331
67	2763
68	1386
69	1858
73	4023
74	1386
79	542
80	491
81	652
82	1572
83	9999
84	743
95	397
96	618
