Mass Spectrum: Piperazine, 1,4-dinitroso-
Formula: C4 H8 N4 O2
CAS: 140-79-4
Molecular weight: 144
Origin: NIST Mass Spectrometry Data Center, 1994
m/z	RELATIVE INTENSITY
12	54
13	1
14	298
15	1047
16	81
18	105
26	941
27	1900
28	4506
29	1504
30	3590
38	79
39	179
40	591
41	1641
42	9999
43	172
44	62
51	96
52	200
53	107
54	875
55	3410
56	2867
57	3485
58	138
81	90
84	4837
85	331
114	1133
115	80
144	1519
145	89
146	2
