Mass Spectrum: Pyrrolidine, 1-(cyanoacetyl)-
Formula: C7 H10 N2 O
CAS: 14227-95-3
Molecular weight: 138
Origin: MASS SPECTROMETRY CENTER, UNIV. OF UTAH ALDRICH 11513-4
m/z	RELATIVE INTENSITY
14	159
15	1136
26	324
27	1555
28	2650
29	1005
30	1588
38	322
39	1759
40	2248
41	5141
42	4481
43	4123
44	406
52	65
53	254
54	246
55	9999
56	4893
57	88
67	388
68	2396
69	875
70	6190
71	389
82	1164
83	1245
84	132
85	14
95	256
96	384
97	163
98	4034
99	290
110	2620
111	846
112	11
137	1094
138	8082
139	818
