Mass Spectrum: p-Anisylchlorodiphenylmethane
Formula: C20 H17 Cl O
CAS: 14470-28-1
Molecular weight: 308
Origin: Japan AIST/NIMC Database- Spectrum MS-NW-6218
m/z	RELATIVE INTENSITY
15	119
17	10
18	30
26	10
27	60
28	50
29	20
31	10
35	30
36	129
38	40
39	149
40	10
41	20
43	10
45	30
50	129
51	299
52	60
53	20
55	30
57	10
62	50
63	179
64	60
65	70
66	10
69	10
74	90
75	119
76	139
77	719
78	109
79	30
81	20
82	10
85	10
86	50
87	90
88	139
89	99
90	10
91	99
92	90
93	40
94	109
95	30
98	40
99	40
100	129
101	379
102	109
103	30
104	10
105	899
106	109
107	109
108	109
109	10
110	20
111	20
112	60
113	319
114	219
115	219
116	30
118	40
119	149
120	129
121	50
122	30
123	20
124	10
125	20
126	119
127	90
128	129
129	99
135	489
136	199
137	70
138	20
139	119
140	20
141	40
142	10
145	10
149	20
150	80
151	169
152	609
153	319
154	90
155	20
161	10
162	20
163	109
164	80
165	1289
166	249
167	60
168	20
169	20
170	30
171	10
174	30
175	30
176	90
177	30
178	50
179	10
180	199
181	219
182	70
183	80
184	70
185	169
186	30
187	50
188	40
189	149
190	40
191	20
193	10
195	869
196	189
197	289
198	60
199	30
200	109
201	119
202	559
203	259
204	80
205	20
211	30
212	60
213	1539
214	279
215	699
216	149
217	40
218	10
224	50
225	60
226	489
227	379
228	889
229	1239
230	389
231	90
232	20
237	40
238	20
239	239
240	119
241	419
242	169
243	149
244	30
245	30
246	10
255	30
256	60
257	259
258	869
259	189
260	30
271	229
272	329
273	9999
274	2559
275	369
276	30
308	10
