Mass Spectrum: 2,5-Piperazinedione, 3-benzyl-6-isopropyl-
Formula: C14 H18 N2 O2
CAS: 14474-71-6
Molecular weight: 246
Origin: TNO Volatile Compounds in Food - Chemical Concepts
m/z	RELATIVE INTENSITY
38	75
39	1263
40	162
41	1627
42	596
43	1252
44	228
45	9
46	13
50	131
51	542
52	145
53	154
54	179
55	1634
56	698
57	1517
58	236
59	18
62	12
63	384
64	89
65	1328
66	58
67	26
68	58
69	316
70	271
71	79
72	2278
73	140
74	32
75	40
76	91
77	813
78	330
79	72
80	14
82	702
83	177
84	183
85	3062
86	101
87	31
89	316
90	205
91	9999
92	1718
93	167
97	53
98	26
99	1965
100	97
102	83
103	755
104	377
105	141
106	9
110	32
111	66
112	454
113	1513
114	70
115	20
116	55
117	166
118	265
119	156
120	1139
121	90
125	29
127	5635
128	366
129	655
130	19
131	404
132	222
133	34
135	8
141	6
145	14
146	136
147	72
148	14
154	56
155	1316
156	104
157	24
160	143
162	16
175	360
176	28
188	7
202	24
203	233
204	770
205	83
206	83
218	6
229	128
230	14
231	32
244	7
245	6
246	3405
247	458
248	64
