Mass Spectrum: 4-Pyridinecarboxamide
Formula: C6 H6 N2 O
CAS: 1453-82-3
Molecular weight: 122
Origin: Patti Price, Georgia Bureau of Investigation, Decatur, Georgia
m/z	RELATIVE INTENSITY
44	520
47	90
48	60
49	140
50	640
51	1361
52	650
53	90
75	140
76	140
77	230
78	4053
79	830
80	40
82	30
94	60
95	30
104	120
105	110
106	4183
107	350
120	30
122	9999
123	790
124	50
