Mass Spectrum: Thiophene, 2-butyl-
Formula: C8 H12 S
CAS: 1455-20-5
Molecular weight: 140
m/z	RELATIVE INTENSITY
14	20
15	140
26	80
27	1191
28	110
29	320
30	10
32	10
33	10
34	10
35	10
36	10
37	70
38	190
39	1131
40	80
41	460
42	40
43	90
44	20
45	1561
46	50
47	130
48	10
49	20
50	160
51	300
52	100
53	591
54	30
55	50
56	10
57	140
58	280
59	100
60	20
61	40
62	60
63	160
64	20
65	180
66	80
67	110
68	10
69	250
70	90
71	20
72	20
73	20
74	20
75	20
76	10
77	180
78	80
79	60
80	10
81	50
82	60
83	40
84	280
85	210
86	30
87	10
88	10
89	10
90	10
91	50
92	10
93	30
94	10
95	60
96	50
97	9999
98	1531
99	500
100	70
101	10
102	10
103	10
104	10
105	10
106	10
107	10
108	20
109	90
110	90
111	280
112	50
113	10
114	10
121	10
122	10
123	30
124	10
125	410
126	40
127	20
128	10
134	10
135	10
137	10
139	20
140	1922
141	150
142	100
143	10
