Mass Spectrum: 2,5-Dimethoxybenzenesulfonyl chloride
Formula: C8 H9 Cl O4 S
CAS: 1483-28-9
Molecular weight: 236
Origin: NIST Mass Spectrometry Data Center, 1994
m/z	RELATIVE INTENSITY
15	5679
16	132
18	119
25	137
26	584
27	317
28	932
29	1083
30	255
31	167
32	61
35	284
36	295
37	626
38	874
39	2170
40	290
41	376
42	125
43	208
44	61
45	495
48	536
49	411
50	2350
51	6434
52	1158
53	5982
54	778
55	569
56	140
57	494
58	107
59	213
60	102
61	955
62	2498
63	5197
64	3442
65	1785
66	1430
67	295
68	102
69	1532
70	319
71	187
72	102
73	371
74	920
75	857
76	1486
77	9999
78	1349
79	8775
80	830
81	372
82	711
83	331
84	298
85	497
86	136
92	4953
93	862
94	1883
95	582
96	179
97	289
98	203
99	575
100	166
101	188
105	725
107	7768
108	802
109	5249
110	1020
111	430
112	139
113	144
114	229
122	4005
123	205
124	237
125	648
126	375
127	213
128	139
129	2014
130	207
131	713
135	205
137	4041
139	330
141	138
142	525
143	233
144	205
153	1103
154	148
155	60
156	60
157	5137
158	420
159	1760
160	148
168	120
170	83
171	954
172	148
201	1296
202	76
221	764
223	368
236	8812
237	863
238	3303
239	358
240	164
