Mass Spectrum: Benzene, 1-methyl-3-[(1-methylethyl)thio]-
Formula: C10 H14 S
CAS: 14905-80-7
Molecular weight: 166
Origin: J.E. DOOLEY, U.S. BUREAU OF MINES, BARTLESVILLE, OKLA., USA
m/z	RELATIVE INTENSITY
25	13
26	213
27	2108
28	109
29	31
32	22
33	15
34	19
35	5
36	5
37	108
38	327
39	2330
40	213
41	1635
42	128
43	2095
44	76
45	1824
46	55
47	142
48	5
49	24
50	242
51	566
52	193
53	282
54	15
55	5
56	2
57	84
58	192
59	398
60	55
61	75
62	181
63	572
64	133
65	806
66	82
67	39
68	26
69	522
70	105
71	212
72	19
73	92
74	88
75	105
76	59
77	1082
78	405
79	734
80	184
81	70
82	164
83	146
84	155
85	34
86	33
87	32
88	20
89	339
90	280
91	5420
92	501
93	105
94	20
95	80
96	42
97	238
98	45
99	14
100	3
101	3
102	9
103	17
104	10
105	72
106	15
107	16
108	268
109	109
110	28
111	12
115	54
116	27
117	95
118	109
119	22
120	10
121	350
122	110
123	1118
124	9999
125	915
126	476
127	38
128	8
129	5
130	3
131	13
132	9
133	21
134	45
135	64
136	92
137	109
138	16
139	7
147	20
148	16
149	71
150	21
151	639
152	77
153	33
154	4
163	10
164	10
165	46
166	5797
167	681
168	289
169	30
170	3
