Mass Spectrum: 2-(2-Phenylvinyl)pyridine, cis
Formula: C13 H11 N
CAS: 1519-59-1
Molecular weight: 181
Origin: V.A.KOPTYUG, ATLAS OF MASS SPECTRA OF ORGANIC COMPOUNDS
m/z	RELATIVE INTENSITY
50	200
51	780
52	150
63	340
64	100
75	280
76	730
77	4220
78	790
79	620
89	770
90	5619
91	130
101	150
102	260
103	100
104	160
115	100
126	1080
127	250
128	190
151	390
152	1160
153	340
154	160
178	490
179	480
180	9999
181	2260
182	450
