Mass Spectrum: 1,5-Cyclooctadiene, (Z,Z)-
Formula: C8 H12
CAS: 1552-12-1
Molecular weight: 108
m/z	RELATIVE INTENSITY
39	5705
40	500
41	1802
42	200
43	500
44	200
50	801
51	1501
52	801
53	1702
54	9999
55	801
56	200
57	400
65	1201
66	2002
67	7907
68	701
69	200
77	1601
78	801
79	4204
80	4904
91	1001
92	200
93	1501
94	300
108	1201
109	200
