Mass Spectrum: 2,5-Bis(trimethylsilyl)furan
Formula: C10 H20 O Si2
CAS: 1578-29-6
Molecular weight: 212
Origin: Org.Mass.Spectrom.,24(2)144(1989);S.Rozite ET AL
m/z	RELATIVE INTENSITY
42	200
43	5104
44	720
45	4814
46	200
47	360
50	200
51	160
53	1201
55	1401
57	360
58	520
59	1721
64	160
66	1601
67	640
68	760
69	120
71	160
73	6946
74	320
75	760
77	200
79	160
81	160
83	1721
91	120
93	120
95	160
97	160
99	400
109	80
117	160
119	160
131	200
133	240
147	9999
148	1441
149	600
157	800
170	280
197	2692
198	280
199	160
212	1481
213	400
214	240
