Mass Spectrum: 1-Propene, 1-chloro-, (Z)-
Formula: C3 H5 Cl
CAS: 16136-84-8
Molecular weight: 76
m/z	RELATIVE INTENSITY
12	50
13	70
14	100
15	300
16	10
24	40
25	150
26	561
27	751
28	50
29	10
32	10
35	160
36	470
37	1091
38	1281
39	6276
40	1621
41	9999
42	340
43	20
44	10
47	150
48	180
49	591
50	80
51	170
52	10
59	10
60	110
61	260
62	180
63	90
64	50
71	20
72	50
73	160
74	40
75	571
76	3783
77	290
78	1211
79	30
