Mass Spectrum: Naphthalene, 1-butyl-
Formula: C14 H16
CAS: 1634-09-9
Molecular weight: 184
Origin: D.HENNEBERG, MAX-PLANCK INSTITUTE, MULHEIM, WEST GERMANY
m/z	RELATIVE INTENSITY
25	4
26	37
27	295
29	140
30	3
33	21
34	4
35	6
36	2
37	9
38	34
39	358
40	24
41	157
42	20
43	30
45	7
46	4
47	7
48	6
49	7
50	119
51	271
52	58
53	47
54	10
55	126
56	27
57	11
58	17
59	6
60	2
61	15
62	96
63	442
64	80
65	154
66	17
67	7
68	9
69	36
70	40
71	27
73	14
74	122
75	223
76	370
77	304
78	60
79	10
82	169
83	125
84	11
85	7
86	47
87	98
88	87
89	259
90	34
91	154
92	38
93	97
94	96
95	43
96	11
97	7
98	31
99	30
100	21
101	107
102	126
103	27
104	15
105	17
106	16
108	136
109	82
110	67
111	35
112	26
113	102
114	91
115	2420
116	243
117	21
119	9
121	4
122	11
123	11
124	12
125	32
126	198
127	335
128	659
129	201
130	32
131	15
132	11
133	9
134	19
135	33
138	116
139	736
140	389
141	9999
142	4819
143	464
144	29
145	8
150	75
151	202
152	539
153	539
154	201
155	559
156	101
157	10
158	3
160	6
162	14
163	37
164	41
165	191
166	61
167	69
168	16
169	97
170	16
171	1
172	3
173	4
176	19
177	11
178	28
179	16
180	9
181	13
182	23
184	4064
185	616
186	49
187	6
