Mass Spectrum: Cyclohexanol, 2-bromo-, cis-
Formula: C6 H11 Br O
CAS: 16536-57-5
Molecular weight: 178
Origin: J. M. PECHINE
m/z	RELATIVE INTENSITY
26	145
27	1370
28	440
29	1370
31	605
39	1190
40	185
41	1865
42	640
43	1295
44	1170
53	645
54	280
55	1665
56	455
57	7080
58	300
65	105
66	185
67	255
69	390
70	310
71	440
72	185
77	160
79	585
80	330
81	9999
82	750
83	120
97	110
98	150
99	4340
100	305
132	100
134	100
178	955
180	920
