Mass Spectrum: t-Butyldiphenylmethanol
Formula: C17 H20 O
CAS: 1657-60-9
Molecular weight: 240
Origin: NIST Mass Spectrometry Data Center, 1994
m/z	RELATIVE INTENSITY
15	168
16	16
17	24
18	56
27	608
28	192
29	1278
30	34
31	46
37	22
39	855
41	1644
42	100
43	465
44	21
49	21
50	328
51	1491
52	232
53	153
54	17
55	155
56	114
57	723
58	40
59	27
62	39
63	164
64	45
65	119
66	13
67	14
69	27
70	16
71	12
74	79
75	131
77	5929
78	630
79	112
80	12
81	15
82	41
83	43
85	43
86	22
87	34
88	51
89	120
90	12
91	376
92	32
94	15
95	17
98	12
99	12
100	12
101	44
102	64
103	134
104	12
105	9999
106	704
107	55
113	37
115	216
116	51
117	27
119	148
120	20
125	8
126	50
127	91
128	113
129	91
130	16
131	42
132	12
133	18
137	13
138	14
139	77
140	18
141	18
143	9
145	15
147	288
148	32
150	32
151	92
152	336
153	212
154	69
155	47
162	13
163	89
165	392
166	94
167	54
168	24
176	14
178	54
179	19
181	375
183	6601
184	923
185	70
189	35
190	11
191	24
207	18
