Mass Spectrum: Benzenamine, 4-chloro-2-nitro-N-phenyl-
Formula: C12 H9 Cl N2 O2
CAS: 16611-15-7
Molecular weight: 248
Origin: Chemical Concepts
m/z	RELATIVE INTENSITY
34	20
35	70
36	429
37	179
38	529
39	1169
40	509
41	229
42	50
43	279
44	399
45	10
46	40
47	30
48	10
49	149
50	1199
51	4419
52	679
53	229
54	50
55	349
56	139
57	399
58	20
60	30
61	189
62	559
63	1629
64	669
65	659
66	249
67	129
68	129
69	2189
70	629
71	219
73	469
74	779
75	1179
76	639
77	4499
78	649
79	90
80	70
81	339
83	4169
85	289
86	199
87	369
88	389
89	619
90	299
91	349
92	489
93	129
94	279
95	179
96	70
97	359
98	219
99	329
100	269
101	639
102	349
103	199
104	40
105	129
107	439
108	359
109	269
110	149
111	299
112	149
113	469
114	399
115	499
116	219
117	90
119	20
120	10
121	30
122	20
123	129
124	269
125	279
126	249
127	409
128	339
129	90
130	30
131	30
135	40
136	40
137	259
138	499
139	2619
140	2109
141	319
142	40
143	20
147	20
148	20
149	179
150	70
151	139
152	429
153	209
154	1049
155	539
156	129
157	40
161	10
162	40
163	99
164	809
165	769
166	6220
167	8480
168	1859
169	179
170	10
173	119
174	119
175	60
176	30
177	80
178	50
179	689
180	179
181	70
182	139
183	559
184	90
185	10
187	20
188	50
189	40
190	109
191	559
192	119
193	189
194	179
195	60
196	99
200	309
201	5870
202	1219
203	4169
204	459
205	829
206	99
207	10
213	99
214	3119
215	1149
216	1149
217	709
218	329
219	319
220	129
221	70
229	20
230	90
231	1449
232	199
233	369
234	50
248	9999
249	1409
250	3259
251	429
252	30
