Mass Spectrum: Benzo[b]thiophene, 2-(2-naphthalenyl)-
Formula: C18 H12 S
CAS: 17164-77-1
Molecular weight: 260
Origin: SHELL OIL CO., HOUSTON, TEXAS, USA
m/z	RELATIVE INTENSITY
37	18
38	60
39	242
40	1126
41	55
42	12
43	36
44	406
45	146
46	6
47	7
48	7
49	5
50	131
51	170
52	38
53	12
54	3
55	17
56	18
57	42
58	29
59	4
60	4
61	17
62	90
63	214
64	23
65	25
66	6
67	8
68	8
69	249
70	28
71	35
72	6
73	17
74	173
75	187
76	92
77	125
78	79
79	15
80	4
81	41
82	81
83	18
84	16
85	28
86	94
87	136
88	64
89	101
90	20
91	31
92	12
93	77
94	50
95	50
96	6
97	12
98	72
99	70
100	80
101	82
102	50
103	37
104	89
105	26
106	51
107	84
108	84
109	17
110	39
111	41
112	40
113	146
114	62
115	84
116	149
117	126
118	14
119	12
120	15
121	18
122	34
123	35
124	9
125	23
126	115
127	90
128	101
129	641
130	1231
131	78
132	15
133	9
134	55
135	17
136	7
137	27
138	35
139	115
140	20
141	12
142	6
143	4
144	4
145	28
146	9
147	7
148	4
149	17
150	86
151	84
152	95
153	17
154	5
155	5
156	7
157	7
158	33
159	7
160	4
161	18
162	26
163	99
164	32
165	39
166	8
167	4
168	5
169	19
170	14
171	38
172	8
173	8
174	38
175	31
176	77
177	14
178	9
179	2
180	3
181	3
182	21
183	18
184	26
185	15
186	20
187	101
188	50
189	128
190	28
191	5
192	3
193	8
194	7
195	18
196	6
197	5
198	21
199	28
200	87
201	37
202	77
203	12
204	8
205	7
206	18
207	14
208	28
209	7
210	23
211	34
212	21
213	249
214	68
215	526
216	103
217	12
218	6
219	20
220	9
221	24
222	10
223	10
224	87
225	55
226	346
227	98
228	268
229	53
230	12
231	14
232	58
233	22
234	41
235	9
236	5
239	4
240	52
241	12
242	9
243	9
244	12
245	36
246	9
247	5
248	4
254	3
255	3
256	82
257	58
258	1566
259	558
260	9999
261	1952
262	591
263	92
264	12
