Mass Spectrum: Cyclododecanol
Formula: C12 H24 O
CAS: 1724-39-6
Molecular weight: 184
Origin: Japan AIST/NIMC Database- Spectrum MS-NW-2780
m/z	RELATIVE INTENSITY
15	90
17	30
18	109
26	60
27	1549
28	399
29	2359
30	90
31	619
32	30
38	30
39	1409
40	289
41	6419
42	1759
43	3509
44	1899
45	859
46	20
50	30
51	90
52	60
53	659
54	3589
55	8339
56	2819
57	5559
58	749
59	159
63	20
65	119
66	1069
67	6679
68	6819
69	4479
70	1999
71	1929
72	599
73	119
77	90
78	30
79	339
80	389
81	5169
82	9999
83	3589
84	1209
85	1179
86	239
87	30
91	50
92	10
93	149
94	299
95	4249
96	5579
97	1989
98	989
99	429
100	80
105	10
107	50
108	109
109	2269
110	2269
111	829
112	419
113	149
114	40
121	50
122	70
123	1039
124	989
125	189
126	30
127	80
128	40
135	30
136	30
137	529
138	1229
139	169
140	1229
141	199
142	20
149	10
151	40
153	10
155	30
156	179
157	20
164	10
166	929
167	119
168	10
182	50
183	50
184	70
