Mass Spectrum: Ethanone,2-diazo-1-(4-methylphenyl)-
Formula: C9 H8 N2 O
CAS: 17263-64-8
Molecular weight: 160
Origin: ASES Database, Dalian Institute, P.R. China
m/z	RELATIVE INTENSITY
38	500
39	1901
41	500
49	1201
51	2292
52	1000
53	500
61	290
62	800
63	1801
64	390
65	1311
74	500
75	400
76	490
77	1991
78	3673
79	290
89	890
90	290
91	3262
92	400
102	810
103	4674
104	3012
105	390
119	8597
120	780
132	690
160	9999
161	1000
