Mass Spectrum: 5-Chloro-beznofurazan oxide
Formula: C6 H3 Cl N2 O2
CAS: 17348-69-5
Molecular weight: 170
Origin: A.A.Kutin, Moscow, Russia
m/z	RELATIVE INTENSITY
40	1005
60	423
73	714
74	3571
75	6163
76	4392
84	767
85	265
110	2566
112	1455
127	370
169	608
170	9999
172	1825
