Mass Spectrum: 1,4-Cyclohexadiene, 1,2-dimethyl-
Formula: C8 H12
CAS: 17351-28-9
Molecular weight: 108
Origin: NIST Mass Spectrometry Data Center, 1990.
m/z	RELATIVE INTENSITY
15	271
18	78
26	198
27	1544
28	507
29	240
37	99
38	417
39	2686
40	340
41	1010
42	71
50	749
51	1679
52	570
53	837
54	194
55	92
61	93
62	283
63	659
64	192
65	1693
66	371
67	304
74	184
75	122
77	6206
78	944
79	1703
80	253
89	176
91	9999
92	1270
93	8803
94	661
102	88
103	236
105	918
106	584
107	787
108	4944
109	387
