Mass Spectrum: 9,10-Anthracenedione, 1-amino-4-hydroxy-2-phenoxy-
Formula: C20 H13 N O4
CAS: 17418-58-5
Molecular weight: 331
Origin: NIST Mass Spectrometry Data Center, 1998.
m/z	RELATIVE INTENSITY
27	30
38	30
39	280
40	30
41	20
42	10
43	20
44	20
50	310
51	1190
52	290
53	170
54	20
55	20
61	10
62	60
63	240
64	80
65	260
66	220
67	20
68	40
69	200
70	10
74	180
75	420
76	570
77	2080
78	300
79	50
80	10
85	10
86	50
87	100
88	120
89	240
90	30
91	60
92	40
93	370
94	160
95	20
96	20
98	40
99	120
100	160
101	720
102	590
103	210
104	390
105	910
106	70
107	10
108	120
110	30
111	30
112	20
113	240
114	420
115	1150
116	200
117	240
118	60
119	20
120	20
121	10
122	20
123	40
124	20
125	320
126	930
127	1100
128	390
129	470
130	420
131	110
132	30
133	20
137	150
138	80
139	120
140	230
141	160
142	180
143	360
144	100
145	20
149	30
150	30
151	90
152	260
153	270
154	250
155	210
156	220
157	220
158	60
159	20
163	20
164	120
165	220
167	30
168	30
169	120
170	390
171	170
172	40
173	30
176	30
177	20
178	30
180	100
181	210
182	290
183	120
184	210
185	50
186	10
187	10
189	90
190	40
191	30
192	30
193	20
196	20
197	70
198	290
199	350
200	100
201	70
202	160
203	50
204	180
205	40
206	10
208	20
209	60
210	160
211	180
212	60
213	10
214	30
215	30
216	70
217	180
218	210
219	50
220	20
224	20
225	50
226	1260
227	260
228	160
229	90
230	120
231	40
232	110
233	20
237	30
238	30
239	10
240	30
241	30
244	130
245	50
246	300
247	70
248	10
254	210
255	30
256	90
257	80
258	70
259	30
260	50
261	130
262	60
266	80
268	30
272	40
273	20
274	220
275	50
276	20
284	50
285	140
286	350
287	50
288	30
301	10
302	1140
303	460
304	70
313	90
314	840
315	200
316	250
317	30
329	90
330	810
331	9999
332	2160
333	300
334	10
