Mass Spectrum: Carbamic acid, 1-methylethyl ester
Formula: C4 H9 N O2
CAS: 1746-77-6
Molecular weight: 103
Origin: Japan AIST/NIMC Database- Spectrum MS-NW-1524
m/z	RELATIVE INTENSITY
14	60
15	469
16	239
17	109
18	329
19	20
26	119
27	1589
28	149
29	369
30	10
31	529
32	30
37	60
38	119
39	809
40	199
41	2289
42	999
43	2029
44	1719
45	9999
46	239
47	20
57	30
58	70
59	3209
60	109
61	10
62	4429
63	60
64	10
75	10
88	1179
89	40
104	10
