Mass Spectrum: Dibenzyl ketoxime
Formula: C15 H15 N O
CAS: 1788-31-4
Molecular weight: 225
Origin: Chemical Concepts
m/z	RELATIVE INTENSITY
26	14
27	56
28	23
29	10
30	17
31	13
33	15
36	23
37	19
38	61
39	495
40	54
41	189
42	20
43	20
44	10
46	13
47	15
50	11
51	166
52	428
53	136
54	41
55	12
56	17
57	10
58	18
59	11
60	10
61	26
62	112
63	457
64	166
65	1709
66	138
67	17
68	8
69	18
70	11
71	12
73	11
74	61
75	80
76	98
77	457
78	146
79	145
80	32
81	16
82	14
83	12
84	12
85	13
86	28
87	45
88	63
89	863
90	801
91	9999
92	2806
93	236
94	42
95	18
96	11
97	9
98	11
99	11
101	27
102	112
103	339
104	229
105	166
106	123
107	136
108	52
109	20
113	19
114	30
115	428
116	684
117	1200
118	478
119	56
120	13
121	10
122	25
123	9
126	17
127	25
128	51
129	76
130	841
131	124
132	41
133	22
134	418
135	46
136	9
139	33
140	12
141	23
146	53
147	31
148	11
149	49
150	21
151	31
152	78
153	42
154	17
163	27
164	20
165	248
166	141
167	140
168	34
176	35
177	33
178	194
179	179
180	73
181	217
182	77
183	16
187	10
188	11
189	72
190	46
191	159
192	172
193	200
194	56
195	17
196	9
203	14
204	67
205	45
206	783
207	834
208	531
209	634
210	135
211	18
221	10
223	40
224	431
225	2270
226	469
227	57
