Mass Spectrum: 2-Methyl-4-propylphenol
Formula: C10 H14 O
CAS: 18441-56-0
Molecular weight: 150
Origin: J.MACAK, DEP. COKE GAS TECH., PRAGUE INST. CHEM. TECH., CZEC
m/z	RELATIVE INTENSITY
38	100
39	700
40	100
41	400
43	200
50	200
51	500
53	300
55	200
62	100
63	200
64	100
65	400
66	100
67	100
71	1200
72	300
73	200
89	100
91	900
92	200
93	100
102	100
103	200
105	100
106	300
107	100
115	100
120	200
121	9999
122	1000
133	100
134	100
135	100
149	100
150	1900
151	200
