Mass Spectrum: 6-tert-Butyl-2,4-dimethylphenol
Formula: C12 H18 O
CAS: 1879-09-0
Molecular weight: 178
Origin: NIST Mass Spectrometry Data Center, 1992
m/z	RELATIVE INTENSITY
12	6
13	14
15	537
27	955
29	693
30	19
31	24
37	19
38	130
39	1441
40	222
41	1465
42	115
43	323
44	5
45	27
46	15
50	205
51	762
52	310
53	650
54	78
55	335
56	28
57	199
58	116
59	30
60	31
61	18
62	103
63	358
64	220
65	777
66	214
67	286
69	72
71	35
72	81
73	108
74	104
75	122
76	18
77	1481
78	381
79	718
80	169
81	195
83	12
85	6
86	21
87	38
88	40
89	173
90	6
91	2039
92	246
93	196
94	32
95	47
96	8
98	7
99	6
100	6
101	28
102	143
103	404
104	188
105	1183
106	179
107	461
108	116
109	30
110	7
113	11
115	1044
116	294
117	563
118	134
119	773
120	180
121	927
122	367
123	767
124	61
125	8
126	39
127	284
128	752
129	836
130	992
131	322
132	120
133	242
134	8
135	7264
136	703
137	135
138	10
139	12
140	9
141	60
142	36
143	155
144	79
145	255
146	94
147	349
148	145
149	168
150	23
159	26
161	229
163	9999
164	1160
165	79
176	52
178	2988
179	402
180	29
