Mass Spectrum: Butanenitrile, 2-methyl-
Formula: C5 H9 N
CAS: 18936-17-9
Molecular weight: 83
Origin: Japan AIST/NIMC Database- Spectrum MS-NW-1030
m/z	RELATIVE INTENSITY
14	10
15	139
17	10
18	99
25	10
26	309
27	1429
28	599
29	2439
30	40
31	10
37	90
38	119
39	569
40	139
41	859
42	129
43	80
44	10
45	30
49	20
50	60
51	149
52	259
53	149
54	3779
55	9999
56	469
57	60
59	10
63	20
64	60
65	10
66	60
67	10
68	129
69	10
77	10
78	10
79	10
82	99
83	10
