Mass Spectrum: 2,3-Butanediol, [S-(R*,R*)]-
Formula: C4 H10 O2
CAS: 19132-06-0
Molecular weight: 90
Origin: Chuck Anderson, Aldrich Chemical Co.
m/z	RELATIVE INTENSITY
15	139
19	272
26	66
27	633
28	393
29	1021
30	41
31	206
38	12
39	84
41	121
42	154
43	1293
44	446
45	9999
46	270
47	561
55	167
56	28
57	756
71	33
72	58
73	37
75	198
90	29
