Mass Spectrum: Swep
Formula: C8 H7 Cl2 N O2
CAS: 1918-18-9
Molecular weight: 219
Origin: NIST Mass Spectrometry Data Center, 1998.
m/z	RELATIVE INTENSITY
14	50
15	1130
16	20
25	30
26	80
27	60
28	250
29	720
30	150
31	590
32	340
35	100
36	110
37	740
38	660
39	340
40	110
41	30
42	40
44	230
47	280
48	130
49	630
50	710
51	470
52	420
53	50
54	70
55	70
59	4050
60	400
61	1410
62	2280
63	2390
64	700
65	150
66	30
67	30
71	140
72	710
73	1690
74	1270
75	1120
76	270
77	460
78	110
79	120
80	60
82	30
83	190
84	380
85	320
86	350
87	510
88	1280
89	620
90	960
91	80
93	180
94	110
96	160
97	1530
98	740
99	810
100	310
101	90
102	80
104	150
105	60
106	40
107	310
108	100
109	820
110	180
111	370
112	150
113	270
114	60
115	70
119	10
121	20
122	60
123	90
124	5769
125	2200
126	2060
127	710
128	60
131	60
132	130
133	2420
134	250
135	1540
136	130
137	220
138	130
139	260
140	450
141	140
142	120
143	10
145	260
146	180
147	240
148	180
149	90
150	60
152	20
153	10
154	20
158	80
159	2230
160	2370
161	1820
162	1780
163	500
164	400
165	50
166	60
168	50
169	330
170	40
171	100
172	40
173	40
174	4570
175	410
176	2980
177	240
178	450
179	50
183	100
184	60
185	50
186	40
187	9999
188	1090
189	6369
190	690
191	1080
192	100
203	40
219	5609
220	460
221	3390
222	270
223	520
224	50
