Mass Spectrum: 2,5-Dimethylphenyl isothiocyanate
Formula: C9 H9 N S
CAS: 19241-15-7
Molecular weight: 163
Origin: NIST Mass Spectrometry Data Center, 1994
m/z	RELATIVE INTENSITY
14	77
15	319
18	20
26	450
27	2473
29	94
32	349
33	83
36	38
37	369
38	837
39	3957
40	390
41	467
44	454
45	1220
46	97
47	63
49	219
50	2127
51	4123
52	1243
53	1063
54	149
55	46
56	52
57	146
58	452
59	513
60	188
61	379
62	915
63	2103
64	849
65	1282
66	271
67	310
69	286
70	649
71	157
72	195
73	158
74	637
75	798
76	854
77	5136
78	2264
79	1509
80	309
81	157
82	630
83	267
84	266
85	115
86	208
87	193
88	156
89	873
90	377
91	862
92	212
93	97
94	77
95	121
96	190
97	62
98	92
99	71
100	74
101	180
102	710
103	2214
104	1041
105	3074
106	286
107	97
108	96
109	91
110	57
114	37
116	417
117	285
118	604
119	119
120	86
121	475
122	128
123	71
128	333
130	7913
131	1549
132	177
133	69
134	250
135	744
136	243
137	56
146	73
148	2482
149	277
150	160
160	61
162	2743
163	9999
164	1244
165	559
166	78
