Mass Spectrum: 2,6-Dimethylphenyl isothiocyanate
Formula: C9 H9 N S
CAS: 19241-16-8
Molecular weight: 163
Origin: NIST Mass Spectrometry Data Center, 1994
m/z	RELATIVE INTENSITY
14	43
15	286
26	289
27	1846
28	5
29	83
32	227
33	63
37	316
38	809
39	3475
40	399
41	316
44	373
45	1117
46	69
47	71
50	1538
51	3014
52	1100
53	790
54	160
55	58
57	76
58	371
59	354
60	141
61	356
62	813
63	1943
64	761
65	1212
66	201
67	274
68	103
69	292
70	502
71	128
72	212
73	76
74	498
75	638
76	836
77	4393
78	1933
79	1382
80	343
81	103
82	680
83	106
84	159
85	93
86	156
87	171
88	144
89	822
90	405
91	916
92	196
93	99
94	81
95	140
96	167
97	58
98	90
99	53
100	34
101	167
102	759
103	2207
104	791
105	2608
106	280
107	68
108	85
109	95
110	42
116	339
117	294
118	727
119	113
120	67
121	390
122	103
128	377
130	8135
131	1927
132	164
133	69
134	262
135	966
136	238
137	77
146	70
148	2001
149	183
150	90
160	92
162	2323
163	9999
164	1097
165	522
166	64
