Mass Spectrum: N-(4-Nitrophenyl)-N'-phenyl-urea
Formula: C13 H11 N3 O3
CAS: 1932-32-7
Molecular weight: 257
Origin: ASES Database, Dalian Institute, P.R. China
m/z	RELATIVE INTENSITY
63	1991
64	3533
65	3002
66	2482
77	1010
91	5524
92	2502
93	9999
109	990
119	9518
120	990
134	1191
138	2001
164	1501
257	300
