Mass Spectrum: 1,4-Dibromo-2-butanol
Formula: C4 H8 Br2 O
CAS: 19398-47-1
Molecular weight: 230
Origin: Japan AIST/NIMC Database- Spectrum MS-NW-5436
m/z	RELATIVE INTENSITY
12	10
13	30
14	239
15	1599
16	30
18	20
24	10
25	70
26	729
27	3919
28	1039
29	6499
30	199
31	1599
32	30
34	10
36	20
37	99
38	179
39	1019
40	119
41	1249
42	739
43	6489
44	1049
45	169
49	50
50	189
51	239
52	80
53	1379
54	169
55	359
56	60
57	3199
58	159
59	20
67	10
69	70
70	119
71	1489
72	80
73	10
79	239
80	399
81	339
82	379
83	99
87	10
91	40
92	60
93	639
94	239
95	589
96	209
97	20
104	20
105	119
106	80
107	609
108	99
109	679
110	40
111	179
117	10
119	80
120	40
121	349
122	149
123	6409
124	259
125	5949
126	149
127	20
131	10
132	20
133	639
134	50
135	609
136	739
137	9999
138	1039
139	9609
140	359
141	30
149	30
150	579
151	589
152	609
153	569
154	30
179	10
185	10
187	10
193	10
195	10
202	119
204	219
206	109
212	20
213	179
214	60
215	329
216	40
217	159
218	10
230	10
232	20
234	10
