Mass Spectrum: 5-Decene
Formula: C10 H20
CAS: 19689-19-1
Molecular weight: 140
Origin: CARL DJERASSI DEPT OF CHEM STANFORD UNIV STANFORD CALIF 94305
m/z	RELATIVE INTENSITY
41	3636
42	1919
43	2626
44	101
51	101
52	101
53	404
54	808
55	9999
56	5151
57	1313
58	101
65	101
66	101
67	505
68	303
69	3838
70	3737
71	505
79	101
81	101
82	202
83	1313
84	1515
85	303
95	101
96	101
97	1515
98	606
99	101
111	404
112	202
140	2525
141	202
