Mass Spectrum: Thiirane, (methoxymethyl)-
Formula: C4 H8 O S
CAS: 19858-14-1
Molecular weight: 104
Origin: J.E. WILKINSON S-CUBED, SAN DIEGO, CA.
m/z	RELATIVE INTENSITY
41	243
42	276
43	2805
45	2927
46	1114
47	499
48	28
49	8
55	1
56	2
57	110
58	9999
59	858
60	67
61	46
69	42
71	222
72	45
73	579
74	24
75	16
76	141
104	2846
105	124
106	106
