Mass Spectrum: 6-Thioxanthine
Formula: C5 H4 N4 O S
CAS: 2002-59-7
Molecular weight: 168
Origin: Japan AIST/NIMC Database- Spectrum MS-NW- 613
m/z	RELATIVE INTENSITY
12	70
13	40
14	30
15	40
16	40
24	50
25	50
26	129
27	1239
28	3869
29	189
30	40
31	10
32	549
33	359
34	709
35	30
36	149
37	10
38	519
39	349
40	149
41	339
42	149
43	379
44	509
45	709
46	99
47	50
48	10
49	20
50	50
51	50
52	269
53	2869
54	3529
55	489
56	159
57	389
58	219
59	599
60	459
61	80
62	20
63	20
64	119
65	159
66	269
67	199
68	109
69	329
70	949
71	3209
72	259
73	169
74	20
76	20
77	40
78	80
79	509
80	709
81	1289
82	189
83	319
84	159
85	149
86	839
87	169
88	50
89	10
91	60
92	50
93	70
94	50
95	109
96	90
97	409
98	1949
99	189
100	90
101	20
102	10
103	10
104	10
105	50
106	569
107	379
108	529
109	899
110	99
111	90
112	40
113	189
114	99
115	40
116	20
117	20
118	20
119	30
120	20
121	30
122	20
123	50
124	199
125	4109
126	649
127	219
128	40
129	50
130	10
131	20
132	10
133	30
134	1579
135	1599
136	139
137	30
138	20
139	20
140	359
141	60
142	20
143	10
144	10
145	20
146	10
147	20
148	10
149	20
150	30
151	99
152	1069
153	80
154	20
155	30
157	20
158	10
159	20
160	10
161	10
162	10
163	20
164	10
165	20
166	10
167	99
168	9999
169	789
170	499
171	40
172	10
