Mass Spectrum: 1,2-Cyclohexanedione, 3,3,6,6-tetramethyl-
Formula: C10 H16 O2
CAS: 20651-89-2
Molecular weight: 168
m/z	RELATIVE INTENSITY
28	881
29	476
30	714
39	1190
40	381
41	2571
42	643
43	381
53	476
54	238
55	1095
56	9999
57	5071
58	309
67	190
68	190
69	2452
70	571
71	119
72	1952
73	238
85	548
86	381
87	167
96	167
97	595
98	167
107	167
112	952
113	119
122	333
125	333
140	429
168	2095
169	238
