Mass Spectrum: Carbamic acid, 2-chloroethyl ester
Formula: C3 H6 Cl N O2
CAS: 2114-18-3
Molecular weight: 123
Origin: RADIAN CORP
m/z	RELATIVE INTENSITY
14	70
15	180
16	220
17	90
18	80
19	40
26	310
27	1650
28	680
29	620
30	200
31	2010
32	170
35	40
36	20
40	20
41	30
42	270
43	1260
44	9999
45	2210
46	60
47	50
48	90
49	590
50	130
51	190
52	10
58	50
61	140
62	5580
63	460
64	1757
65	110
74	7480
75	180
76	20
79	290
80	50
81	90
87	200
88	1390
89	30
