Mass Spectrum: Methanone, [1,1'-biphenyl]-4-ylphenyl-
Formula: C19 H14 O
CAS: 2128-93-0
Molecular weight: 258
Origin: NIST Mass Spectrometry Data Center, 1990.
m/z	RELATIVE INTENSITY
14	5
16	9
26	16
27	115
28	83
38	28
39	130
40	6
41	6
50	420
51	1280
52	112
53	26
61	12
62	90
63	257
64	26
65	33
74	203
75	351
76	522
77	3202
78	229
79	13
86	61
87	99
88	67
89	77
90	12
91	16
94	17
98	60
99	66
100	78
101	200
102	222
103	49
104	12
105	2493
106	195
107	23
109	6
110	19
111	20
113	112
115	746
119	8
120	8
122	13
123	6
124	16
125	83
126	368
127	453
128	64
129	15
137	9
138	8
139	17
150	395
151	1284
152	4190
153	2102
154	233
155	12
162	7
163	28
164	7
165	17
174	11
175	11
176	29
177	9
181	9999
182	1411
183	118
184	6
187	20
188	15
189	33
190	10
198	10
199	11
200	44
201	39
202	89
203	29
213	15
214	6
215	23
223	6
224	29
225	34
226	159
227	97
228	182
229	109
230	210
231	43
237	8
239	29
240	20
241	50
242	12
255	17
257	907
258	6250
259	1259
260	150
261	11
