Mass Spectrum: Dibenzo[a,c]pentacene
Formula: C30 H18
CAS: 216-08-0
Molecular weight: 378
Origin: Chemical Concepts
m/z	RELATIVE INTENSITY
27	21
38	7
39	21
50	10
51	6
52	1
62	15
63	21
74	14
75	5
76	4
86	6
87	12
88	3
89	4
99	1
100	7
108	6
110	1
115	5
116	6
117	7
122	7
124	5
125	15
126	15
135	7
136	8
137	7
138	4
142	6
143	7
148	10
149	14
150	20
151	8
155	3
156	6
160	10
161	38
162	39
163	19
164	6
167	6
168	7
169	7
170	3
172	7
173	40
174	84
175	79
176	41
177	7
179	7
180	5
181	6
182	6
183	7
184	6
185	21
186	71
187	190
188	436
189	542
190	45
191	6
196	7
197	7
198	4
200	6
201	6
210	6
211	6
213	7
222	8
223	6
224	9
226	6
233	6
235	7
236	7
237	7
238	6
246	7
247	6
248	7
249	7
250	7
258	6
259	7
260	7
261	8
262	6
263	6
270	6
271	6
272	11
273	8
274	11
275	7
276	1
279	1
283	7
284	7
285	8
286	7
287	8
294	6
295	6
296	11
297	6
298	18
299	8
300	15
301	6
302	7
307	7
308	8
309	10
310	8
311	19
312	7
313	8
314	6
315	6
318	7
319	6
320	13
321	10
322	34
323	10
324	37
325	13
326	21
327	6
328	25
329	4
330	6
331	7
333	10
334	9
335	23
336	10
337	22
338	12
339	14
340	8
341	6
342	17
343	7
344	18
346	39
347	23
348	108
349	40
350	133
351	48
352	69
353	22
354	8
356	6
357	7
358	6
359	13
360	6
361	28
362	13
363	23
364	7
365	19
366	19
367	7
368	16
369	8
370	41
371	22
372	175
373	80
374	472
375	204
376	1199
377	501
378	9999
379	2814
380	499
381	70
