Mass Spectrum: 5-Nonylamine
Formula: C9 H21 N
CAS: 2198-45-0
Molecular weight: 143
Origin: NIST Mass Spectrometry Data Center, 1990.
m/z	RELATIVE INTENSITY
14	11
15	84
16	16
17	27
18	236
25	13
26	95
27	773
28	706
29	995
30	4910
31	70
32	9
39	421
41	1281
42	505
43	862
44	655
45	15
50	16
51	21
52	22
53	84
54	118
55	253
56	690
57	337
58	50
59	7
65	24
67	83
69	707
70	104
71	17
72	24
77	13
79	13
80	18
81	19
82	25
83	21
84	77
85	13
86	9999
87	523
88	10
97	13
100	13
112	15
142	62
143	10
