Mass Spectrum: Cyclohexylamine, N,N-dimethyl-1-phenyl-,
Formula: C14 H21 N
CAS: 2201-17-4
Molecular weight: 203
Origin: Patti Price, Georgia Bureau of Investigation, Decatur, Georgia
m/z	RELATIVE INTENSITY
41	130
42	170
43	30
44	340
45	10
46	40
50	20
51	150
52	30
53	60
54	10
55	160
56	70
57	10
58	80
59	10
62	10
63	70
64	20
65	190
66	30
67	120
68	70
69	10
70	70
71	30
72	10
74	20
75	50
76	90
77	690
78	170
79	180
80	70
81	430
82	60
83	10
84	110
86	10
87	10
88	10
89	110
90	40
91	3212
92	240
93	10
94	10
95	10
96	40
97	10
98	10
101	10
102	130
103	320
104	140
105	110
106	20
107	10
108	10
109	10
110	10
113	10
114	10
115	890
116	250
117	1301
118	440
119	60
120	50
121	30
122	20
123	10
124	10
125	10
126	1261
127	300
128	370
129	570
130	390
131	380
132	160
133	10
134	80
135	10
139	10
140	10
141	70
142	30
143	380
144	180
145	80
146	1931
147	370
148	30
149	20
151	10
152	20
153	20
154	10
155	10
156	10
157	50
158	410
159	400
160	9999
161	1131
162	60
167	10
172	30
173	10
174	200
175	30
188	40
189	10
202	1030
203	2602
204	370
205	20
