Mass Spectrum: Furan, 3-bromo-
Formula: C4 H3 Br O
CAS: 22037-28-1
Molecular weight: 146
Origin: J.E. WILKINSON S-CUBED, SAN DIEGO, CA.
m/z	RELATIVE INTENSITY
40	917
41	64
42	27
47	34
48	65
49	510
50	158
51	61
53	44
65	24
66	82
67	253
73	136
74	128
79	671
80	57
81	647
82	56
84	118
86	68
91	173
92	64
93	156
94	63
104	45
106	46
115	15
116	99
117	2030
118	1107
119	1972
120	887
146	9999
147	275
148	9931
149	252
