Mass Spectrum: 2-Propenoic acid, 2-chloroethyl ester
Formula: C5 H7 Cl O2
CAS: 2206-89-5
Molecular weight: 134
Origin: NIST Mass Spectrometry Data Center, 1998.
m/z	RELATIVE INTENSITY
14	20
15	40
24	10
25	60
26	530
27	2290
28	140
29	210
30	60
31	120
35	20
36	20
37	20
38	20
39	30
41	30
42	100
43	140
44	70
45	50
47	30
48	50
49	330
50	80
51	110
52	30
53	180
54	150
55	9999
56	350
57	40
60	20
61	70
62	1890
63	550
64	600
65	160
69	10
70	200
71	40
72	30
73	330
74	10
75	30
76	10
77	10
78	20
79	20
80	10
81	50
85	2040
86	90
87	10
88	70
89	20
90	20
91	10
92	10
97	50
98	40
99	1460
100	80
101	10
104	110
105	10
106	40
116	10
