Mass Spectrum: 3-(4-Chlorophenyl)-1,1-dimethyl-2-thiourea
Formula: C9 H11 Cl N2 S
CAS: 2212-17-1
Molecular weight: 214
Origin: Japan AIST/NIMC Database- Spectrum MS-IW- 181
m/z	RELATIVE INTENSITY
14	10
15	159
26	20
27	80
28	10
30	70
32	40
34	20
36	40
37	90
38	119
39	119
40	60
41	70
42	599
43	299
44	3179
45	1759
46	50
47	119
48	10
49	60
50	529
51	329
52	50
54	10
55	20
56	109
57	90
58	20
59	20
60	60
61	159
62	99
63	259
64	129
65	40
66	99
67	60
68	10
69	70
70	50
71	3339
72	209
73	459
74	349
75	1889
76	309
77	80
78	10
79	70
81	50
82	40
83	50
84	429
85	209
86	50
87	80
88	7439
89	1279
90	619
91	70
92	20
93	10
94	10
95	10
96	10
97	20
98	30
99	159
100	40
101	50
102	179
103	20
105	10
106	20
107	159
108	159
109	109
110	50
111	3429
112	309
113	1119
114	90
118	40
120	10
122	20
123	10
124	30
125	549
126	109
127	239
128	40
129	20
130	10
131	10
132	10
133	169
134	909
135	169
136	90
137	399
138	149
139	129
140	279
141	20
142	259
143	139
144	389
145	80
146	119
147	10
148	10
149	159
150	20
151	20
152	20
153	60
154	439
155	50
156	139
157	20
162	40
163	70
164	10
165	50
166	349
167	90
168	129
169	9999
170	1099
171	3669
172	399
173	159
174	10
178	50
179	10
181	729
182	129
183	259
184	40
185	10
197	70
198	50
199	80
200	20
201	20
212	30
213	219
214	4149
215	579
216	1499
217	179
218	60
