Mass Spectrum: p-Chlorophenyl 2,3-epoxypropyl ether
Formula: C9 H9 Cl O2
CAS: 2212-05-7
Molecular weight: 184
Origin: Japan AIST/NIMC Database- Spectrum MS-NW-8867
m/z	RELATIVE INTENSITY
14	40
15	109
18	20
26	149
27	1759
28	199
29	4819
30	119
31	3759
32	50
35	10
36	60
37	119
38	379
39	829
40	50
41	259
42	80
43	419
44	20
45	10
47	50
49	119
50	569
51	389
52	30
53	129
54	10
55	179
56	70
57	5709
58	209
59	10
60	20
61	159
62	349
63	1159
64	679
65	1549
66	119
67	10
68	10
70	10
71	10
72	80
73	1009
74	339
75	1649
76	279
77	569
78	70
79	40
84	40
85	169
86	30
87	70
88	10
89	139
90	40
91	629
92	219
93	259
94	80
95	10
97	20
98	40
99	1319
100	779
101	479
102	279
103	30
105	30
106	20
107	30
108	10
110	30
111	2089
112	199
113	1289
114	109
115	209
116	10
118	10
119	389
120	50
121	20
125	559
126	80
127	489
128	9999
129	779
130	3239
131	219
132	20
133	10
139	20
140	10
141	2349
142	199
143	779
144	60
149	10
150	40
153	99
154	1219
155	199
156	409
157	50
165	20
166	10
167	10
168	30
170	10
184	7149
185	719
186	2339
187	229
188	20
