Mass Spectrum: Heptaphene
Formula: C30 H18
CAS: 222-75-3
Molecular weight: 378
Origin: Chemical Concepts
m/z	RELATIVE INTENSITY
51	12
62	14
63	41
75	8
87	5
98	2
101	6
126	18
150	2
151	10
155	1
161	16
162	23
163	11
164	4
168	6
173	4
174	54
175	60
176	30
180	9
182	6
186	33
187	143
188	239
189	591
190	49
192	10
200	7
211	3
215	8
224	13
225	7
226	11
227	8
237	10
238	7
248	10
250	10
251	8
252	10
261	11
262	2
263	13
265	6
272	9
273	10
274	10
276	13
277	9
284	6
285	11
286	10
287	10
288	10
296	8
297	7
298	27
299	12
300	23
301	4
302	8
309	11
310	10
311	15
312	15
313	18
314	10
315	7
320	12
321	10
322	40
323	13
324	34
325	12
326	35
327	15
328	10
331	7
332	7
333	11
334	10
335	30
336	13
337	28
338	12
339	13
340	7
344	11
345	10
346	49
347	26
348	96
349	47
350	107
351	38
352	87
353	29
354	13
357	6
358	6
359	18
360	10
361	30
362	12
363	15
364	10
365	6
370	30
371	30
372	167
373	107
374	519
375	246
376	1643
377	540
378	9999
379	4175
380	687
381	103
