Mass Spectrum: Naphthalene, octachloro-
Formula: C10 Cl8
CAS: 2234-13-1
Molecular weight: 400
Origin: MASS SPECTROMETRY CENTER, UNIV. OF UTAH EPA-PTSEL 5720E
m/z	RELATIVE INTENSITY
18	50
35	412
36	1966
47	270
84	421
95	239
120	244
142	223
149	212
166	1812
167	873
190	235
260	904
262	431
264	237
330	2071
332	4056
334	2958
336	792
368	442
400	3278
402	8501
403	1018
404	9999
405	1502
406	6109
407	461
408	2432
410	414
