Mass Spectrum: Dibenz[a,j]anthracene
Formula: C22 H14
CAS: 224-41-9
Molecular weight: 278
Origin: B. RICKBORN,DEP. CHEM.,UNIV. CALIF.,SANTA BARBARA,CALIF.,USA
m/z	RELATIVE INTENSITY
125	330
137	390
138	780
139	1510
274	510
275	190
276	1580
277	470
278	9999
279	2440
280	360
