Mass Spectrum: Undecanenitrile
Formula: C11 H21 N
CAS: 2244-07-7
Molecular weight: 167
Origin: Japan AIST/NIMC Database- Spectrum MS-NW-5209
m/z	RELATIVE INTENSITY
14	20
15	199
16	10
26	189
27	3389
28	355
29	5259
30	549
31	50
32	10
33	10
37	30
38	80
39	2389
40	469
41	9999
42	2399
43	9549
44	599
45	879
46	30
47	10
50	50
51	159
52	159
53	759
54	5299
55	6339
56	2819
57	5919
58	359
59	90
60	10
62	10
63	30
64	30
65	139
66	149
67	849
68	1349
69	5809
70	2979
71	1529
72	139
73	60
74	30
75	10
76	10
77	129
78	30
79	609
80	289
81	739
82	6759
83	6379
84	1179
85	669
86	90
87	30
91	139
92	30
93	429
94	279
95	439
96	6939
97	8579
98	1019
99	99
100	10
101	10
104	10
105	50
106	10
107	219
108	149
109	149
110	6449
111	2859
112	519
113	50
115	10
118	10
119	10
120	20
121	169
122	129
123	50
124	4759
125	679
126	169
127	20
129	10
135	30
136	50
137	10
138	2269
139	339
140	149
141	20
143	10
148	60
149	50
150	10
152	379
153	40
157	20
163	20
164	10
166	279
167	50
168	70
169	10
