Mass Spectrum: Benzene, (2-isothiocyanatoethyl)-
Formula: C9 H9 N S
CAS: 2257-09-2
Molecular weight: 163
Origin: Japan AIST/NIMC Database- Spectrum MS-NW-8978
m/z	RELATIVE INTENSITY
26	10
27	129
28	60
29	10
30	50
32	20
37	10
38	40
39	399
40	40
41	80
44	30
45	80
46	10
50	199
51	589
52	139
53	60
58	20
59	20
60	10
61	10
62	70
63	289
64	70
65	979
66	60
69	10
70	20
71	20
72	439
73	20
74	90
75	80
76	90
77	919
78	309
79	449
80	30
84	10
85	10
86	10
87	20
88	10
89	209
90	80
91	9999
92	779
93	30
101	30
102	199
103	489
104	279
105	1899
106	169
116	20
117	10
121	10
128	70
129	10
130	10
131	10
134	30
135	99
136	10
162	30
163	4429
164	509
165	229
166	20
