Mass Spectrum: Benzonitrile, 4-(methylsulfonyl)-
Formula: C8 H7 N O2 S
CAS: 22821-76-7
Molecular weight: 181
Origin: A.A.Kutin, Moscow, Russia
m/z	RELATIVE INTENSITY
33	29
34	33
35	75
36	47
37	240
38	316
39	527
40	92
41	96
42	33
43	99
44	62
45	315
46	106
47	248
48	192
49	222
50	1501
51	2035
52	468
53	54
54	20
55	73
56	33
57	98
58	44
59	20
60	32
61	102
62	274
63	1991
64	429
65	232
66	22
67	32
68	31
69	178
70	56
71	56
72	38
73	191
74	660
75	2527
76	1495
77	341
78	123
79	260
80	30
81	66
82	95
83	563
85	410
86	43
87	95
88	65
89	177
90	629
91	308
92	54
93	27
94	43
95	82
96	26
97	32
98	34
99	171
100	131
102	9999
103	844
104	62
105	160
106	59
107	247
108	26
109	19
110	13
111	24
112	14
113	9
114	13
115	17
116	148
117	70
119	7791
120	592
121	58
122	208
123	49
124	22
125	12
126	13
127	17
128	14
129	14
130	9
131	17
132	15
133	72
134	51
135	14
136	3
137	10
138	4
139	8
140	5
141	6
142	6
143	9
144	8
145	3
146	13
147	22
148	24
150	225
151	22
152	16
153	11
154	49
155	121
156	22
157	4
158	2
159	3
160	7
161	4
162	3
163	6
164	21
166	1925
167	187
168	95
169	15
170	5
171	7
172	3
173	7
174	6
175	5
177	3
178	5
179	14
181	1522
182	210
183	104
184	17
185	10
186	5
