Mass Spectrum: 2(1H)-Pyridinethione, 3-hydroxy-6-methyl-
Formula: C6 H7 N O S
CAS: 22989-67-9
Molecular weight: 141
m/z	RELATIVE INTENSITY
26	780
27	2935
28	1628
38	459
39	1330
40	367
41	826
42	1743
43	505
44	275
45	1261
50	1766
51	2362
52	3302
53	3876
54	780
55	596
58	367
59	550
60	757
68	757
69	2385
70	459
71	596
72	505
78	1055
79	1147
80	3440
81	665
84	138
85	596
86	138
96	2591
97	3555
98	459
106	596
107	367
108	436
109	275
112	3440
113	1766
114	275
126	161
140	275
141	9999
142	1330
143	780
