Mass Spectrum: Pentanamide, N-(3-chloro-4-methylphenyl)-2-methyl-
Formula: C13 H18 Cl N O
CAS: 2307-68-8
Molecular weight: 239
Origin: NIST Mass Spectrometry Data Center, 1998.
m/z	RELATIVE INTENSITY
15	10
26	20
27	400
28	120
29	600
30	20
36	10
37	10
38	30
39	450
40	70
41	1280
42	230
43	5079
44	190
45	10
49	10
50	120
51	510
52	250
53	200
54	60
55	770
56	130
57	30
58	10
61	20
62	60
63	220
64	50
65	110
66	30
67	30
68	20
69	340
70	40
71	4700
72	260
73	70
74	30
75	120
76	130
77	1450
78	420
79	180
80	40
81	10
83	20
84	10
85	20
86	20
87	40
88	20
89	370
90	120
91	80
92	10
97	30
98	50
99	450
100	40
101	50
102	100
103	60
104	490
105	180
106	1190
107	200
108	10
111	20
112	70
113	170
114	60
115	70
116	30
117	40
118	40
119	50
120	10
123	10
124	10
125	210
126	30
127	80
128	20
129	10
130	30
131	30
132	280
133	90
134	10
138	30
139	50
140	1440
141	9999
142	1320
143	3230
144	290
145	20
146	20
147	20
151	10
152	50
153	100
154	70
155	30
156	20
158	10
160	10
161	40
162	10
164	10
166	70
167	100
168	320
169	60
170	100
171	10
178	10
180	20
181	10
182	40
183	10
184	10
192	10
194	20
195	10
196	90
197	1170
198	160
199	380
200	40
204	40
205	10
210	70
211	10
212	20
224	10
237	10
238	10
239	1470
240	220
241	480
242	70
243	10
