Mass Spectrum: 5-Ethyl-2-furaldehyde
Formula: C7 H8 O2
CAS: 23074-10-4
Molecular weight: 124
Origin: NIST Mass Spectrometry Data Center, 1994
m/z	RELATIVE INTENSITY
4	15
12	64
13	108
14	328
15	1072
16	29
17	20
18	51
25	175
26	1218
27	4214
28	706
29	4573
30	98
31	58
32	63
36	117
37	1255
38	2525
39	7544
40	1154
41	5590
42	479
43	117
46	24
47	28
48	35
49	325
50	1733
51	2580
52	1677
53	6208
54	384
55	511
56	49
57	91
60	44
61	304
62	590
63	936
64	235
65	2418
66	896
67	5692
68	393
69	98
77	140
79	343
80	317
81	5136
82	328
93	64
95	3959
96	298
97	34
105	25
109	9999
110	695
111	72
121	192
123	1931
124	9219
125	813
126	70
