Mass Spectrum: 6-Methyl-5-nitroquinoline
Formula: C10 H8 N2 O2
CAS: 23141-61-9
Molecular weight: 188
Origin: NIST Mass Spectrometry Data Center
m/z	RELATIVE INTENSITY
14	40
15	100
16	80
17	10
26	731
27	931
28	1191
30	3053
32	30
36	40
37	681
38	1411
39	3503
40	280
41	250
42	50
43	160
44	80
45	60
46	420
50	2372
51	2883
52	1251
53	370
54	90
55	120
56	170
57	500
61	961
62	2512
63	4964
64	1461
65	1221
66	170
67	40
68	20
70	460
73	240
74	1361
75	1641
76	1511
77	1792
78	661
79	140
80	30
85	330
86	811
87	1481
88	1832
89	3723
90	751
91	170
92	50
98	310
99	390
100	390
101	520
102	911
103	1291
104	350
105	60
109	40
110	90
111	110
113	1641
114	2893
115	7006
116	4954
117	661
118	100
119	20
127	340
128	771
129	621
130	2422
131	420
132	60
138	40
140	2392
141	7437
142	9999
143	8948
144	1101
145	60
155	200
156	60
157	300
158	791
159	120
160	20
171	6286
172	791
173	70
188	7957
189	1111
190	100
