Mass Spectrum: 2,4-Dimethoxyamphetamine
Formula: C11 H17 N O2
CAS: 23690-13-3
Molecular weight: 195
Origin: Dr. Jiri Zamecnik, DCIEM, North York, Canada, GP Library
m/z	RELATIVE INTENSITY
44	9999
45	270
65	320
77	560
78	390
79	160
90	120
91	690
92	90
105	110
106	110
107	120
120	120
121	1210
122	150
123	90
137	320
138	50
151	1240
152	6150
153	590
179	40
180	50
194	50
195	30
