Mass Spectrum: Dinaphtho(1,2-b:2',1'-d)thiophene
Formula: C20 H12 S
CAS: 239-72-5
Molecular weight: 284
Origin: Chemical Concepts
m/z	RELATIVE INTENSITY
27	99
28	32
38	61
39	178
40	170
45	133
50	138
51	131
52	22
58	17
61	19
62	90
63	177
69	115
70	16
74	141
75	77
76	40
77	43
78	17
81	21
82	36
85	16
86	91
87	88
88	33
89	35
93	74
94	43
95	34
98	71
99	50
100	37
101	22
103	19
104	21
105	19
106	38
107	23
109	17
110	35
111	47
112	38
113	61
114	31
115	33
116	67
117	41
118	45
119	54
120	48
122	36
123	19
124	21
125	62
126	67
127	34
128	93
129	173
130	19
134	21
135	21
137	22
138	17
139	32
140	105
141	453
142	1088
143	72
145	19
149	18
150	40
151	27
158	17
161	37
162	38
163	72
164	18
174	36
175	16
185	20
186	41
187	106
188	47
189	34
198	19
199	16
200	41
208	19
209	22
210	20
211	110
212	55
213	94
214	19
219	24
222	18
223	28
224	72
225	26
226	38
230	18
232	57
234	34
235	56
236	64
237	314
238	130
239	479
240	112
241	17
243	34
244	17
245	36
247	16
248	65
249	43
250	321
251	94
252	498
253	100
254	20
256	72
257	34
258	60
259	16
280	174
281	118
282	1121
283	466
284	9999
285	1819
286	626
287	111
288	17
