Mass Spectrum: Benzaldehyde, 2-hydroxy-3-(2-propenyl)-
Formula: C10 H10 O2
CAS: 24019-66-7
Molecular weight: 162
m/z	RELATIVE INTENSITY
14	50
15	30
17	20
18	100
26	90
27	731
28	1291
29	270
31	40
32	290
37	100
38	280
39	1611
40	190
41	280
42	40
43	430
44	60
45	50
47	30
49	50
50	601
51	1601
52	500
53	821
54	100
55	661
56	50
57	140
58	180
59	10
61	100
62	310
63	851
64	230
65	881
66	520
67	220
68	190
69	50
71	60
72	50
73	80
74	260
75	260
76	290
77	2893
78	911
79	1401
80	380
81	100
83	30
85	40
86	70
87	90
88	70
89	601
90	300
91	2622
92	450
93	180
94	170
95	30
97	30
98	40
101	60
102	170
103	761
104	230
105	2482
106	871
107	901
108	90
113	60
114	120
115	4054
116	3023
117	1171
118	310
119	1501
120	260
121	530
122	480
123	50
127	50
128	30
129	50
131	711
132	380
133	4464
134	3573
135	1101
136	100
143	400
144	1081
145	711
146	90
147	1281
148	140
159	80
160	40
161	2212
162	9999
163	1111
164	100
