Mass Spectrum: Methyl 3-(1,1'-biphenyl-4-yl)butanoate
Formula: C17 H18 O2
CAS: 24254-67-9
Molecular weight: 254
Origin: R. NEIDLEIN, PHARM.-CHEM. INST., UNIV. HEIDELBERG, W. GER.
m/z	RELATIVE INTENSITY
43	400
76	500
77	900
91	200
139	200
141	200
151	400
152	1300
153	600
154	400
165	2400
166	1800
167	800
181	9999
182	2200
194	2500
195	500
197	1200
254	5500
