Mass Spectrum: Propane, 1-chloro-2-nitro-
Formula: C3 H6 Cl N O2
CAS: 2425-66-3
Molecular weight: 123
Origin: J.E. WILKINSON S-CUBED, SAN DIEGO, CA.
m/z	RELATIVE INTENSITY
46	687
47	124
48	156
49	4309
50	92
51	1421
52	14
53	3
57	26
58	4
60	35
61	487
62	46
63	139
64	1
73	51
75	296
76	1031
77	9999
78	641
79	3210
80	71
84	2
93	1
