Mass Spectrum: 1,6-Octadiene, 3,7-dimethyl-
Formula: C10 H18
CAS: 2436-90-0
Molecular weight: 138
Origin: A.Swigar, R.Silverstein, Monoterpenes,1981
m/z	RELATIVE INTENSITY
37	90
38	340
39	6936
40	1031
41	9999
42	741
43	631
44	70
50	330
51	941
52	550
53	2843
54	821
55	3964
56	360
57	150
60	30
62	150
63	340
64	140
65	961
66	430
67	4144
68	751
69	1131
70	140
77	961
78	170
79	961
80	150
81	2863
82	1251
83	430
91	550
92	170
93	260
94	190
95	771
96	460
97	220
105	150
107	190
109	260
110	150
123	170
138	170
