Mass Spectrum: Propane-1,3-dione, 1,3-diphenyl-2-(phenylimino)-
Formula: C21 H15 N O2
CAS: 24416-28-2
Molecular weight: 313
Origin: ASES Database, Dalian Institute, P.R. China
m/z	RELATIVE INTENSITY
51	1171
52	220
57	220
74	220
76	350
77	4283
78	220
79	110
93	220
103	220
104	340
105	9999
132	220
152	340
208	1040
210	230
211	570
313	800
314	230
