Mass Spectrum: 4,4'-Sulfonyldibenzoic acid
Formula: C14 H10 O6 S
CAS: 2449-35-6
Molecular weight: 306
Origin: Japan AIST/NIMC Database- Spectrum MS-IW-7593
m/z	RELATIVE INTENSITY
17	10
18	30
26	10
27	50
28	269
38	30
39	379
40	10
41	10
43	10
44	169
45	129
48	10
49	10
50	489
51	419
52	40
53	129
55	40
57	10
62	30
63	119
64	99
65	1299
66	90
67	10
69	50
70	30
71	20
73	20
74	179
75	399
76	559
77	189
78	40
79	20
81	99
82	20
83	10
84	10
85	99
86	10
87	20
89	10
91	20
92	50
93	349
94	20
95	50
96	40
97	159
98	10
99	30
101	10
102	10
103	99
104	569
105	90
106	10
107	40
108	30
109	70
110	20
111	10
113	229
114	20
115	40
119	10
120	30
121	899
122	80
123	60
124	60
125	209
126	30
127	20
128	10
135	10
136	60
137	30
138	10
139	70
140	20
141	329
142	20
143	10
149	10
150	30
151	80
152	209
153	129
154	20
167	10
168	40
169	9999
170	849
171	539
172	40
179	10
183	10
184	30
185	70
186	20
195	10
196	20
197	10
212	10
225	50
226	10
230	10
242	10
261	10
262	40
276	10
289	99
290	30
305	70
306	1319
307	219
308	80
309	10
