Mass Spectrum: Benzo[c]thiophene, 1,3-dihydro-
Formula: C8 H8 S
CAS: 2471-92-3
Molecular weight: 136
m/z	RELATIVE INTENSITY
24	10
25	10
26	40
27	120
28	120
29	10
32	40
33	10
34	20
35	10
36	10
37	70
38	160
39	571
40	50
41	50
42	10
43	10
44	50
45	430
46	50
47	30
48	10
49	40
50	340
51	571
52	140
53	60
54	50
55	30
56	10
57	30
58	100
59	30
60	20
61	100
62	230
63	550
64	110
65	370
66	100
67	931
68	260
69	270
70	40
71	50
72	10
73	30
74	130
75	130
76	140
77	330
78	120
79	10
80	10
81	50
82	80
83	30
84	50
85	30
86	50
87	50
88	30
89	470
90	240
91	1892
92	170
93	80
94	20
95	50
96	10
97	30
98	30
99	10
100	10
101	30
102	170
103	200
104	70
105	10
106	10
107	10
108	100
109	50
110	20
111	10
112	10
113	10
115	10
116	10
117	10
118	10
119	10
120	10
121	130
122	10
123	10
128	10
129	10
130	10
131	10
132	20
133	190
134	1972
135	9999
136	6736
137	1021
138	320
139	30
140	10
141	10
