Mass Spectrum: 5H-Naphtho[2,3-b]carbazole
Formula: C20 H13 N
CAS: 248-96-4
Molecular weight: 267
Origin: Chemical Concepts
m/z	RELATIVE INTENSITY
27	20
38	16
39	70
40	19
41	5
50	45
51	56
52	19
61	15
62	38
63	75
64	12
74	66
75	73
76	29
77	17
79	14
80	28
81	9
86	42
87	76
88	48
89	118
93	34
94	73
95	12
98	43
99	46
100	54
101	22
105	36
106	169
107	116
108	15
110	22
111	43
112	50
113	45
114	21
115	17
117	15
118	120
119	268
120	260
121	44
122	16
123	15
125	16
126	27
127	37
131	19
132	164
133	534
134	539
135	16
137	17
138	17
139	50
140	59
141	13
146	8
148	6
150	26
151	17
152	12
161	15
162	18
163	50
164	31
165	18
174	23
175	17
176	29
177	13
185	15
186	16
187	70
188	39
189	44
190	40
198	16
199	17
200	46
201	28
202	18
211	63
212	50
213	116
214	81
215	60
216	13
224	22
225	27
226	30
227	46
228	16
235	28
236	44
237	197
238	183
239	405
240	210
241	37
251	60
252	19
262	126
263	75
264	712
265	433
266	2707
267	9999
268	2700
269	282
270	21
