Mass Spectrum: Cyclopentanol, 2-methyl-, trans-
Formula: C6 H12 O
CAS: 25144-04-1
Molecular weight: 100
Origin: CARL DJERASSI DEPT OF CHEM STANFORD UNIV STANFORD CALIF 94305
m/z	RELATIVE INTENSITY
41	4900
42	1100
43	3200
44	3800
45	1100
50	300
51	300
52	100
53	700
54	700
55	1700
56	2800
57	9999
58	2100
59	200
61	100
65	100
67	2700
68	200
69	300
70	200
71	2800
72	1100
79	100
81	300
82	3300
83	500
85	200
100	800
