Mass Spectrum: 1,8-Naphthyridine
Formula: C8 H6 N2
CAS: 254-60-4
Molecular weight: 130
Origin: Japan AIST/NIMC Database- Spectrum MS-NW-2534
m/z	RELATIVE INTENSITY
26	189
27	129
28	159
36	20
37	179
38	229
39	509
40	40
48	20
49	109
50	1289
51	879
52	479
53	139
60	20
61	80
62	129
63	329
64	139
65	279
73	60
74	279
75	839
76	2579
77	899
78	129
79	1259
80	70
87	10
88	30
90	40
99	30
100	30
101	40
102	619
103	2569
104	1529
105	109
129	1829
130	9999
131	1029
132	60
