Mass Spectrum: 4-N,N-Bis(2-chloroethyl)amino-2-tolualdehyde
Formula: C12 H15 Cl2 N O
CAS: 26459-95-0
Molecular weight: 259
Origin: NIST Mass Spectrometry Data Center, 1994
m/z	RELATIVE INTENSITY
4	47
14	23
15	140
16	26
17	32
18	101
27	5705
28	1002
29	982
30	116
35	65
36	105
37	60
38	251
39	1465
40	189
41	577
42	323
43	70
44	41
45	16
48	31
49	477
50	366
51	1141
52	385
53	255
54	148
55	79
56	37
59	96
60	34
61	133
62	385
63	3927
64	504
65	3052
66	250
67	70
68	24
73	76
74	84
75	193
76	228
77	1120
78	500
79	319
80	78
86	54
87	87
88	94
89	1016
90	658
91	2971
92	543
93	382
94	33
101	37
102	157
103	334
104	280
105	585
106	126
107	44
115	170
116	238
117	1151
118	1035
119	861
120	766
121	86
127	28
128	59
129	84
130	559
131	1225
132	745
133	283
134	78
142	26
143	71
144	223
145	26
146	2776
147	926
148	1179
149	127
154	17
158	57
160	202
161	122
162	53
174	134
175	22
180	30
181	100
182	132
183	59
184	46
194	82
195	24
196	79
207	17
210	9999
211	1293
212	3284
213	439
214	28
224	148
225	30
226	46
259	1144
260	157
261	757
262	105
263	129
264	17
