Mass Spectrum: 1-Azabicyclo[2.2.2]octan-4-ol
Formula: C7 H13 N O
CAS: 26458-74-2
Molecular weight: 127
Origin: J. PALECEK,DEP. ORG. CHEM.,INST. CHEM. TECHNOL.,PRAGUE,CZECH.
m/z	RELATIVE INTENSITY
27	1680
28	2000
29	960
39	570
41	2000
42	9999
43	1930
53	580
55	900
56	3040
57	5200
58	2400
69	990
70	1600
84	650
98	1600
99	960
110	9920
111	760
112	660
126	640
127	4560
