Mass Spectrum: 1-Azabicyclo[2.2.2]octane-4-ol acetate(ester)
Formula: C9 H15 N O2
CAS: 26458-76-4
Molecular weight: 169
Origin: J. PALECEK,DEP. ORG. CHEM.,INST. CHEM. TECHNOL.,PRAGUE,CZECH.
m/z	RELATIVE INTENSITY
27	560
28	1160
41	740
42	3720
43	2210
55	500
56	790
110	9999
111	760
169	950
