Mass Spectrum: Benzene, (2-methoxy-2-propenyl)-
Formula: C10 H12 O
CAS: 26473-60-9
Molecular weight: 148
Origin: A.E.HILL VICTORIA COLLEGE, JERSEY, CHANNEL ISLANDS
m/z	RELATIVE INTENSITY
77	3400
78	1600
79	3000
89	2000
90	1800
91	3800
92	1200
103	2400
104	1400
105	9999
106	1600
115	2400
116	1600
117	1800
118	1200
133	2400
134	1000
146	1200
147	1800
148	9400
149	1800
