Mass Spectrum: Methoxycarbonylsulfenyl chloride
Formula: C2 H3 Cl O2 S
CAS: 26555-40-8
Molecular weight: 126
Origin: NIST Mass Spectrometry Data Center, 1994
m/z	RELATIVE INTENSITY
12	70
13	76
14	326
15	3069
16	98
28	884
29	1957
30	470
31	435
32	2038
33	274
34	140
35	456
36	271
37	142
38	82
44	521
45	661
46	396
47	1521
48	347
49	158
50	42
59	9999
60	1984
61	458
62	108
63	308
64	65
65	45
66	42
67	2580
68	107
69	972
71	49
79	54
81	509
82	767
83	312
84	274
85	39
91	577
92	58
93	35
94	35
95	1314
96	35
97	524
98	31
126	3760
127	122
128	1413
129	43
130	59
