Mass Spectrum: Vobassan-17-oic acid, 4-demethyl-3-oxo-, methyl ester
Formula: C20 H22 N2 O3
CAS: 2673-40-7
Molecular weight: 338
Origin: H. Fales, LC, NHLBI, NIH, Bethesda, MD 20892
m/z	RELATIVE INTENSITY
41	3074
42	982
43	6058
44	1574
45	1332
51	721
52	470
53	951
54	574
55	4093
56	940
57	2635
59	1740
60	861
61	709
63	332
65	701
67	2013
68	1067
69	3457
70	642
71	1934
73	760
75	301
76	535
77	2196
78	1771
79	1889
80	695
81	2514
82	1520
83	1976
84	887
85	1168
89	574
91	1329
92	293
93	1982
94	738
95	2702
96	1495
97	1514
98	808
99	588
101	1025
102	1613
103	1168
104	498
105	1216
106	1909
107	1852
108	1433
109	2089
110	887
111	1205
112	146
113	453
115	1453
116	586
117	968
118	524
119	1298
120	895
121	1675
122	1120
123	1644
124	1765
125	1312
126	318
127	1106
128	2435
129	3457
130	4138
131	1157
132	538
133	1027
134	926
135	1489
136	915
137	1270
138	932
139	861
140	681
141	605
142	569
143	2359
144	1616
145	766
147	890
148	586
149	1151
150	678
151	1151
152	1281
153	1050
154	2396
155	1405
156	1323
157	1244
158	2083
159	791
160	152
161	853
162	149
163	1478
164	1134
165	2306
166	8986
167	2601
168	1658
169	1827
170	1171
171	895
172	9999
173	2846
174	543
175	802
176	310
177	783
178	864
179	1084
180	3170
181	1258
182	1695
183	1315
184	2945
185	2624
186	580
187	667
189	1089
190	631
191	1188
192	901
193	1005
194	1562
195	763
196	974
197	754
198	566
201	521
203	1146
204	957
205	1371
206	1230
207	1393
208	1371
209	1334
210	760
211	625
213	366
214	709
215	583
217	563
218	856
219	1208
220	1106
221	1202
222	1087
223	757
224	1151
225	4189
226	864
227	583
229	642
231	738
232	631
233	771
234	875
235	974
236	760
237	915
238	1771
239	788
240	625
241	732
243	301
245	631
246	859
247	1396
248	1047
249	1438
250	771
251	600
252	735
253	493
254	296
255	301
257	476
259	732
261	799
262	628
263	825
264	647
265	1368
266	766
267	777
268	774
269	358
272	763
273	816
274	459
275	808
276	459
277	1484
278	608
279	1430
280	608
281	566
287	146
289	633
291	760
292	158
293	816
294	442
295	1120
299	149
302	158
305	828
306	546
307	1529
308	659
309	1109
313	146
320	186
321	1393
322	324
323	738
335	169
336	670
337	2306
338	3384
339	895
