Mass Spectrum: Benzofurazan
Formula: C6 H4 N2 O
CAS: 273-09-6
Molecular weight: 120
Origin: DOW CHEMICAL COMPANY / ASTM E14-UNCERTIFIED SPECTRUM 530
m/z	RELATIVE INTENSITY
25	42
26	181
27	118
28	753
30	739
32	155
36	80
37	806
38	793
39	2523
40	195
48	35
49	127
50	457
51	356
52	282
53	42
60	102
61	311
62	553
63	3735
64	2158
65	164
66	46
67	38
74	49
75	122
76	181
77	73
86	34
87	106
88	180
89	91
90	9999
91	713
103	44
120	9073
121	678
122	44
