Mass Spectrum: Ethyl tridecanoate
Formula: C15 H30 O2
CAS: 28267-29-0
Molecular weight: 242
Origin: Chuck Anderson, Aldrich Chemical Co.
m/z	RELATIVE INTENSITY
14	1
15	15
16	2
19	6
26	39
27	648
28	265
29	2437
31	61
36	4
37	4
38	15
39	734
40	181
41	5405
42	1499
43	6186
44	271
45	1382
46	37
47	33
48	4
49	2
50	8
51	27
52	20
53	302
54	359
55	3937
56	898
57	2437
58	150
59	162
60	1663
61	1773
62	47
63	12
65	38
66	21
67	380
68	201
69	1577
70	2312
71	937
72	57
73	2499
74	296
75	77
76	3
77	28
78	7
79	109
80	32
81	283
82	104
83	835
84	429
85	332
86	39
87	273
88	9999
89	1203
90	81
91	16
92	1
93	51
94	17
95	222
96	64
97	570
98	328
99	79
101	5311
102	423
103	41
104	2
105	3
107	48
108	9
109	166
110	46
111	287
112	105
113	37
114	12
115	882
116	89
117	10
119	3
121	58
122	7
123	99
124	30
125	128
126	27
127	15
128	5
129	427
130	164
131	14
133	2
135	44
136	5
137	26
138	6
139	51
140	10
141	6
142	1
143	1085
144	177
145	14
149	23
150	6
151	3
152	31
153	31
154	27
155	5
157	1788
158	187
159	16
163	9
167	12
168	5
171	292
172	39
173	4
177	29
178	11
179	7
181	4
185	242
186	45
187	4
194	3
195	26
196	11
197	1351
198	179
199	1163
200	164
201	14
213	423
214	67
215	30
216	3
227	4
241	3
242	624
243	142
244	16
