Mass Spectrum: Thiazole
Formula: C3 H3 N S
CAS: 288-47-1
Molecular weight: 85
Origin: NIST Mass Spectrometry Data Center
m/z	RELATIVE INTENSITY
12	10
13	20
24	30
25	130
26	440
27	140
28	120
32	420
33	70
34	30
37	20
38	230
39	210
40	290
41	70
42	60
44	310
45	1571
46	70
47	70
50	90
51	330
52	200
53	20
56	380
57	2993
58	9539
59	540
60	460
61	10
70	80
82	80
83	70
84	80
85	9999
86	500
87	490
88	10
