Mass Spectrum: 1H-Tetrazole
Formula: C H2 N4
CAS: 288-94-8
Molecular weight: 70
Origin: NIST Mass Spectrometry Data Center, 1998.
m/z	RELATIVE INTENSITY
12	90
13	300
14	330
15	100
21	30
26	240
27	700
28	1260
29	1290
40	170
41	1410
42	9999
43	620
70	400
71	20
