Mass Spectrum: N,N'-(1,4-Phenylenedimethylidyne)bis(4-butylaniline)
Formula: C28 H32 N2
CAS: 29743-21-3
Molecular weight: 396
Origin: Leung Pu, NIH, Bethesda, Maryland, U.S.
m/z	RELATIVE INTENSITY
41	946
42	14
43	723
44	46
45	16
47	93
48	32
49	39
50	21
51	29
52	48
53	74
54	6
55	236
56	42
57	92
60	5
63	121
64	62
65	631
66	51
67	26
69	45
70	18
71	42
75	24
76	63
77	677
78	330
79	116
80	10
81	20
82	5
83	8
84	20
86	13
88	31
89	871
90	1773
91	1620
92	122
93	21
95	21
97	22
98	6
101	34
102	84
103	350
104	219
105	77
106	101
107	5
109	5
113	5
114	46
115	209
116	294
117	145
118	199
119	18
121	6
126	5
127	42
128	64
129	51
130	111
131	72
132	5
133	46
139	36
140	28
141	60
142	28
148	45
149	55
151	43
152	103
153	46
155	3967
158	81
160	27
161	11
162	142
163	12
164	29
165	340
166	103
167	84
168	31
177	433
178	104
179	75
180	66
181	29
189	10
190	89
191	175
192	244
193	462
194	409
195	87
196	67
198	218
202	10
203	35
204	85
205	61
206	65
207	33
208	28
216	26
217	52
218	79
219	569
220	120
221	46
222	16
228	5
229	12
230	6
231	52
232	45
233	25
235	29
236	32
237	37
238	35
239	22
265	15
266	21
267	26
268	23
280	19
281	28
282	34
283	26
284	5
293	15
294	15
295	55
296	33
297	62
298	11
299	11
307	33
308	39
309	170
310	233
311	2707
312	644
313	81
323	170
324	75
325	25
337	37
339	24
349	5
351	29
353	3853
354	1088
355	157
356	5
367	916
368	274
369	41
381	23
393	6
394	5
395	169
396	9999
397	3076
398	483
399	50
