Mass Spectrum: Ethanone, 1-(4,5-dihydro-2-thiazolyl)-
Formula: C5 H7 N O S
CAS: 29926-41-8
Molecular weight: 129
Origin: TNO Volatile Compounds in Food - Chemical Concepts
m/z	RELATIVE INTENSITY
25	61
26	431
27	1417
28	2633
33	83
34	117
35	37
37	52
38	100
39	164
40	236
41	1128
42	859
43	9999
45	1914
46	437
47	167
48	42
50	38
51	105
52	163
53	74
54	163
55	131
56	51
57	290
58	774
59	2575
60	7954
61	460
62	500
69	71
70	89
71	103
72	109
73	14
76	173
83	81
84	74
85	231
86	270
87	1250
88	148
89	68
99	55
101	1066
102	71
103	63
112	555
113	233
114	72
125	34
127	57
129	5791
130	444
131	286
132	31
