Mass Spectrum: 1,3-Butanedione, 1-(2-thienyl)-
Formula: C8 H8 O2 S
CAS: 3051-27-2
Molecular weight: 168
m/z	RELATIVE INTENSITY
15	1172
27	1010
28	1010
29	626
38	606
39	5555
40	303
41	404
42	606
43	7474
44	364
45	2424
50	404
51	364
53	1091
55	424
57	1030
58	626
63	404
65	323
69	7979
70	626
81	505
82	424
83	1172
84	1818
85	1778
97	808
109	525
111	9999
112	606
113	404
126	1717
135	1454
153	3838
167	404
168	5858
169	687
170	323
