Mass Spectrum: 3,4-Furandimethanol, diacetate
Formula: C10 H12 O5
CAS: 30614-73-4
Molecular weight: 212
Origin: J.E. WILKINSON S-CUBED, SAN DIEGO, CA.
m/z	RELATIVE INTENSITY
40	117
43	9999
44	196
45	6
47	21
49	5
50	95
51	278
53	831
54	269
55	110
61	53
63	61
65	253
66	69
67	6
69	21
81	671
82	298
83	29
94	70
95	10
97	61
103	18
109	70
110	5612
111	538
112	22
124	137
125	38
127	18
128	10
137	3
152	1350
153	296
154	13
170	31
212	141
213	7
