Mass Spectrum: 2-Naphthalenol, 1-[(2,4-dimethylphenyl)azo]-
Formula: C18 H16 N2 O
CAS: 3118-97-6
Molecular weight: 276
Origin: Japan AIST/NIMC Database- Spectrum MS-NW-7303
m/z	RELATIVE INTENSITY
26	20
27	289
28	40
29	40
30	50
37	10
38	50
39	599
40	50
41	189
42	60
43	60
44	10
50	199
51	689
52	219
53	329
54	50
55	80
56	30
57	60
58	20
59	10
60	10
61	20
62	149
63	499
64	149
65	639
66	109
67	50
68	20
69	50
70	20
71	40
72	20
73	10
74	139
75	409
76	269
77	2159
78	469
79	1179
80	129
81	20
82	20
83	30
84	10
85	20
86	30
87	80
88	169
89	569
90	139
91	699
92	239
93	149
94	20
95	20
96	10
97	30
98	20
99	30
100	50
101	649
102	449
103	949
104	389
105	5549
106	799
107	299
108	70
109	30
110	20
111	30
112	10
113	219
114	899
115	4359
116	589
117	149
118	589
119	959
120	1339
121	419
122	149
123	70
124	30
125	20
126	70
127	129
128	999
129	249
130	299
131	90
132	109
133	489
134	70
135	10
136	10
137	30
138	419
139	40
140	50
141	40
142	479
143	7969
144	1279
145	149
146	30
147	10
149	20
150	10
151	20
152	40
153	20
154	10
155	20
156	379
157	80
158	319
159	209
160	30
161	10
163	10
164	10
165	50
166	20
167	20
168	30
169	409
170	149
171	1319
172	159
173	10
174	10
175	10
176	20
177	20
178	80
179	40
180	10
181	20
182	10
183	30
184	10
185	10
187	10
189	139
190	70
191	90
192	40
193	20
194	20
195	10
196	10
197	10
199	10
200	10
201	50
202	159
203	169
204	149
205	219
206	60
207	20
208	20
209	10
210	10
213	30
214	20
215	269
216	159
217	80
218	279
219	189
220	80
221	90
222	30
223	20
224	20
225	10
226	20
227	20
228	70
229	99
230	119
231	419
232	599
233	709
234	159
235	50
236	20
237	10
238	10
239	10
240	10
241	10
242	30
243	50
244	40
245	519
246	179
247	1789
248	1079
249	179
250	20
251	10
253	10
254	10
256	10
257	30
258	60
259	1059
260	339
261	1519
262	449
263	70
264	10
270	10
272	10
273	20
274	40
275	1599
276	9999
277	2149
278	249
279	20
