Mass Spectrum: 1-Penten-3-one, 1-phenyl-
Formula: C11 H12 O
CAS: 3152-68-9
Molecular weight: 160
Origin: NIST Mass Spectrometry Data Center, 1994
m/z	RELATIVE INTENSITY
14	60
15	88
17	48
18	3
25	32
26	277
27	1245
28	207
29	973
38	165
39	466
40	55
42	42
43	52
50	866
51	2271
52	350
53	170
55	109
57	184
61	57
62	227
63	483
64	77
65	149
73	39
74	334
75	421
76	701
77	4202
78	381
86	49
87	65
89	103
91	168
98	73
102	1172
103	6481
104	584
105	61
115	231
116	56
117	112
127	63
128	51
129	68
130	51
131	9999
132	998
133	76
159	424
160	2049
161	249
