Mass Spectrum: .alpha.-Lindane
Formula: C6 H6 Cl6
CAS: 319-84-6
Molecular weight: 288
Origin: NIST Mass Spectrometry Data Center, 1990.
m/z	RELATIVE INTENSITY
26	238
27	277
35	259
37	474
38	875
39	853
48	236
49	1228
50	2353
51	3089
52	293
55	294
56	300
60	427
61	1438
62	490
63	819
65	133
72	423
73	2380
74	1369
75	2581
76	349
77	1883
78	267
83	2271
84	433
85	3030
86	490
87	1783
89	377
95	236
96	1275
97	382
98	780
99	726
100	230
101	215
107	210
109	5689
110	990
111	5704
112	989
113	1523
114	295
119	178
121	1307
122	622
123	830
124	352
125	165
131	140
133	594
134	324
135	471
136	185
143	609
145	2315
146	1940
147	1956
148	1159
149	554
150	184
156	1039
157	416
158	987
159	350
160	317
169	303
171	234
181	9837
182	1107
183	9999
184	786
185	3148
186	214
187	353
216	728
217	6767
218	1244
219	8755
220	892
221	3880
222	375
223	896
252	265
254	444
256	284
