Mass Spectrum: .beta.-Hexachlorocyclohexane
Formula: C6 H6 Cl6
CAS: 319-85-7
Molecular weight: 288
Origin: Japan AIST/NIMC Database- Spectrum MS-NW-8496
m/z	RELATIVE INTENSITY
25	10
26	169
27	219
28	90
29	10
32	10
35	90
36	539
37	219
38	609
39	519
40	20
41	10
43	20
44	20
47	80
48	50
49	599
50	869
51	1719
52	159
53	30
54	50
55	219
56	249
57	60
60	129
61	649
62	179
63	309
64	30
65	70
69	20
71	10
72	99
73	1119
74	509
75	1239
76	139
77	959
78	279
79	20
83	2259
84	129
85	2199
86	219
87	1319
88	90
89	289
90	50
91	70
92	30
95	149
96	819
97	219
98	519
99	529
100	169
101	159
102	30
105	10
107	90
108	30
109	9129
110	369
111	6679
112	629
113	1299
114	179
115	30
117	30
119	99
120	40
121	1109
122	649
123	759
124	409
125	149
126	60
130	10
131	139
132	10
133	529
134	269
135	689
136	199
137	299
138	40
139	40
143	759
144	90
145	2019
146	1379
147	1569
148	909
149	489
150	159
151	60
152	10
155	90
156	629
157	609
158	629
159	529
160	219
161	169
162	30
163	20
167	20
168	50
169	449
170	80
171	419
172	40
173	129
174	10
175	10
179	20
180	109
181	9409
182	829
183	9119
184	749
185	2999
186	239
187	349
188	40
189	10
191	30
192	20
193	40
194	20
195	20
196	10
203	10
205	50
207	60
209	30
215	20
216	419
217	7869
218	1049
219	9999
220	919
221	4799
222	369
223	1029
224	70
225	80
251	20
252	1099
253	159
254	1779
255	229
256	1149
257	139
258	369
259	40
260	60
288	279
289	20
290	539
291	30
292	429
293	20
294	179
295	10
296	40
