Mass Spectrum: 1,1-Diethylpropargylamine
Formula: C7 H13 N
CAS: 3234-64-8
Molecular weight: 111
Origin: NIST Mass Spectrometry Data Center, 1990.
m/z	RELATIVE INTENSITY
15	72
16	19
17	25
18	104
25	32
26	185
27	828
28	1087
29	553
30	476
32	13
37	41
38	129
39	795
40	317
41	471
42	1380
43	77
44	66
49	21
50	148
51	279
52	849
53	593
54	375
55	868
56	270
57	23
61	29
62	72
63	103
64	49
65	447
66	148
67	931
68	70
77	119
79	71
80	355
82	9999
83	601
84	27
86	36
91	27
93	26
94	29
