Mass Spectrum: Benzaldehyde, 4-methyl-, oxime
Formula: C8 H9 N O
CAS: 3235-02-7
Molecular weight: 135
Origin: HCACAV,61(8)2941(1978); M. JULLIARD ET AL
m/z	RELATIVE INTENSITY
63	1800
65	2900
79	1100
89	3700
90	6700
91	6600
92	6700
116	6600
117	9999
118	4400
135	6300
