Mass Spectrum: Cyclopropanecarbonitrile, 1-(p-chlorophenyl)-2-phenyl-
Formula: C16 H12 Cl N
CAS: 32589-55-2
Molecular weight: 253
m/z	RELATIVE INTENSITY
26	200
27	1201
28	300
36	300
37	200
38	300
39	2502
40	200
41	300
43	300
50	801
51	2202
52	601
62	701
63	1301
64	1501
65	701
73	300
74	1501
75	901
76	801
77	2903
78	1201
86	200
87	701
88	1702
89	1301
90	500
91	1301
94	601
95	701
99	300
101	300
102	601
103	801
104	801
108	300
109	801
111	300
113	500
114	1301
115	2002
116	701
117	701
118	300
125	400
126	300
127	300
138	200
139	500
140	6005
141	1902
142	300
149	300
150	300
151	300
152	200
163	200
164	200
165	1001
166	400
174	701
175	2202
176	500
177	801
178	400
188	300
189	1301
190	801
191	3203
192	1001
193	200
201	300
202	300
203	1001
204	400
214	400
216	1001
217	4504
218	9999
219	3003
220	500
225	400
226	300
227	300
251	200
252	801
253	6005
254	1902
255	2002
256	701
