Mass Spectrum: 1,1'-Biphenyl, 2,3',4,4'-tetrachloro-
Formula: C12 H6 Cl4
CAS: 32598-10-0
Molecular weight: 290
Origin: T.L.Hayes, Battelle Columbus Laboratories, Columbus, OH 43221
m/z	RELATIVE INTENSITY
34	39
35	199
36	250
37	257
38	210
39	141
40	482
41	11
42	31
43	17
44	126
46	13
47	85
48	39
49	307
50	743
51	316
55	77
56	41
57	13
59	12
60	183
61	835
62	755
63	317
66	35
67	56
68	54
71	53
72	225
73	1049
74	2211
75	1504
76	103
78	15
79	419
80	153
81	34
82	26
83	27
84	468
85	769
86	670
87	428
88	65
92	2838
93	1185
94	42
95	47
96	131
97	675
98	1156
99	1061
100	166
101	42
103	19
107	144
108	270
109	1223
110	3963
111	2479
112	433
113	40
114	97
115	114
116	44
117	31
118	11
119	57
120	173
121	223
122	474
123	657
124	184
125	101
127	954
128	1176
129	573
131	63
132	120
133	180
134	214
135	327
136	106
137	132
138	28
143	24
144	45
145	730
146	973
147	732
148	472
149	966
150	2415
151	303
157	100
158	99
159	202
160	165
161	64
162	48
168	16
169	46
170	325
171	77
172	224
173	45
174	32
177	17
180	24
181	31
182	60
183	202
184	1400
185	1031
186	546
187	348
188	51
193	29
194	192
195	24
196	158
197	27
199	21
204	29
206	11
209	15
217	12
218	107
219	155
220	5550
221	852
222	3522
223	484
224	579
225	83
230	60
231	11
232	26
236	13
241	15
243	15
249	19
254	266
255	78
256	251
257	74
258	91
259	13
262	12
264	11
290	7827
291	1109
292	9999
293	1347
294	4929
295	627
296	1056
297	123
298	110
