Mass Spectrum: Furan, tetrahydro-2,2,4,4-tetramethyl-
Formula: C8 H16 O
CAS: 3358-28-9
Molecular weight: 128
m/z	RELATIVE INTENSITY
14	70
15	841
27	1601
28	360
29	1231
31	110
39	1792
40	260
41	2502
42	971
43	9999
44	240
51	100
53	350
55	3693
56	751
57	240
59	801
67	240
69	220
70	1511
71	260
83	1882
95	240
113	3183
114	240
