Mass Spectrum: Noxiptiline
Formula: C19 H22 N2 O
CAS: 3362-45-6
Molecular weight: 294
Origin: Finnigan MAT: Toxicological Library (LIBR-TX)
m/z	RELATIVE INTENSITY
42	411
43	186
57	302
58	9999
59	377
70	203
71	1931
72	607
89	292
91	189
178	205
179	96
204	196
205	96
206	194
207	193
208	816
220	101
224	195
