Mass Spectrum: 2-Hexene, 2,5-dimethyl-
Formula: C8 H16
CAS: 3404-78-2
Molecular weight: 112
Origin: NIST Mass Spectrometry Data Center, 1990.
m/z	RELATIVE INTENSITY
14	143
15	115
16	62
27	1108
28	108
29	485
31	47
37	34
39	2418
40	611
41	6518
42	606
43	1002
44	86
45	35
46	23
50	214
51	493
52	208
53	1215
54	346
55	2260
56	1844
57	811
58	37
59	30
62	52
63	114
64	35
65	267
66	134
67	1154
68	1525
69	9999
70	1915
71	95
74	50
77	245
78	66
79	294
80	50
81	204
82	29
83	106
84	36
95	87
96	35
97	206
112	2129
113	197
