Mass Spectrum: Furan, 2,3-dihydro-4-methyl-
Formula: C5 H8 O
CAS: 34314-83-5
Molecular weight: 84
Origin: C.BOTTEGHI ZURICH TECHNICAL COLLEGE, ZURICH, SWITZERLAND
m/z	RELATIVE INTENSITY
15	100
18	300
26	500
27	3100
28	1500
29	3600
30	100
31	400
37	150
38	300
39	4400
40	450
41	4500
42	250
43	700
44	400
45	200
50	500
51	600
52	250
53	2100
54	1250
55	9700
56	1900
57	250
65	100
66	100
69	1400
81	150
82	200
83	4800
84	9999
85	800
