Mass Spectrum: Urea, trimethylnitroso-
Formula: C4 H9 N3 O2
CAS: 3475-63-6
Molecular weight: 131
Origin: W.T.RAINEY OAK RIDGE NATIONAL LABORATORY,OAK RIDGE,TN.USA
m/z	RELATIVE INTENSITY
30	1333
39	133
40	249
41	383
42	3166
43	1999
44	1249
45	116
46	116
56	766
57	116
58	399
72	9999
73	899
74	99
94	166
100	66
101	49
131	33
