Mass Spectrum: 1-(2-Pyridyl)piperazine
Formula: C9 H13 N3
CAS: 34803-66-2
Molecular weight: 163
Origin: Japan AIST/NIMC Database- Spectrum MS-NW-7614
m/z	RELATIVE INTENSITY
14	20
15	249
16	10
25	10
26	239
27	709
28	1639
29	929
30	819
31	20
32	50
37	50
38	159
39	429
40	189
41	419
42	889
43	329
44	169
45	10
49	30
50	279
51	1209
52	1099
53	389
54	269
55	199
56	1819
57	839
58	139
59	20
60	10
62	20
63	50
64	109
65	179
66	139
67	349
68	179
69	279
70	80
71	40
73	80
74	20
75	40
76	70
77	99
78	3579
79	3689
80	1459
81	219
82	40
83	99
84	50
85	259
86	20
88	10
89	10
90	30
91	80
92	399
93	499
94	819
95	9719
96	609
97	20
98	10
102	10
103	20
104	109
105	229
106	229
107	7949
108	2179
109	159
110	10
113	20
115	10
116	20
117	40
118	249
119	1119
120	549
121	9999
122	909
123	40
129	10
131	119
132	80
133	1909
134	369
135	159
136	50
143	10
144	30
145	139
146	50
147	40
148	40
149	10
155	10
156	10
157	10
158	20
159	60
160	50
161	169
162	219
163	3639
164	419
165	30
