Mass Spectrum: 2,3-Dimethoxybenzyl isothiocyanate
Formula: C10 H11 N O2 S
CAS: 34964-55-1
Molecular weight: 209
Origin: NIST Mass Spectrometry Data Center, 1994
m/z	RELATIVE INTENSITY
13	42
14	86
15	2006
16	58
26	255
27	482
28	9
29	433
30	87
31	131
32	203
37	231
38	815
39	3844
40	270
41	160
42	87
43	137
44	185
45	513
46	66
47	46
49	117
50	1248
51	2682
52	711
53	819
54	147
55	183
57	50
58	425
59	222
60	65
61	205
62	574
63	1714
64	1108
65	5295
66	548
67	126
68	51
69	130
70	204
71	123
72	1166
73	116
74	391
75	381
76	470
77	2275
78	1791
79	1185
80	399
81	70
82	69
86	91
87	65
88	58
89	465
90	58
91	8120
92	996
93	1090
94	238
95	145
96	213
97	58
102	60
103	95
105	1352
106	1816
107	1095
108	593
109	70
116	33
118	185
119	235
120	105
121	474
122	300
123	419
124	43
133	58
135	1793
136	9999
137	1004
138	98
148	43
149	53
151	5766
152	652
153	80
162	166
164	58
177	114
178	87
179	41
181	47
194	94
209	4281
210	510
211	257
