Mass Spectrum: Ethyl-2,5-dichlorobenzoate
Formula: C9 H8 Cl2 O2
CAS: 35112-27-7
Molecular weight: 218
Origin: NIST Mass Spectrometry Data Center
m/z	RELATIVE INTENSITY
12	30
13	40
14	240
15	841
16	40
17	10
26	681
27	2552
28	591
29	3373
30	480
35	80
36	90
37	430
38	260
39	90
41	20
42	80
43	310
45	1221
46	40
47	70
48	40
49	350
50	1091
51	180
52	10
53	90
54	80
55	70
60	100
61	240
62	190
63	260
64	30
65	10
69	10
71	30
72	200
73	821
74	2903
75	2462
76	200
77	80
78	10
84	691
85	420
86	270
87	160
89	20
90	10
91	40
92	10
94	10
95	30
96	20
97	50
98	40
99	240
100	30
101	100
102	20
103	50
109	2462
110	1081
111	1171
112	370
113	100
118	30
119	80
120	20
121	40
123	20
125	20
126	30
127	70
128	10
129	20
133	20
135	10
137	70
138	210
139	160
140	70
141	40
145	2963
146	450
147	1902
148	200
149	330
150	30
153	10
155	130
156	10
157	40
159	30
161	30
162	30
163	20
164	30
165	70
166	10
167	30
173	9999
174	1571
175	6656
176	811
177	1151
178	120
183	631
184	90
185	190
186	20
190	3523
191	470
192	2082
193	210
194	410
195	30
200	10
201	10
202	20
203	50
205	30
218	2302
219	450
220	1501
221	190
222	250
223	20
