Mass Spectrum: 2-Propyn-1-amine, N-methyl-
Formula: C4 H7 N
CAS: 35161-71-8
Molecular weight: 69
Origin: A.Pleshkova, Nesmeyanov Inst.Org.Elem.Cpds, Moscow
m/z	RELATIVE INTENSITY
26	220
27	821
28	9999
29	360
30	2352
31	210
37	260
38	1011
39	9799
40	1001
41	7707
42	360
43	981
44	1031
45	70
51	120
52	741
53	120
54	530
55	40
68	9348
69	3773
70	170
