Mass Spectrum: 2-(Pentylamino)ethanol
Formula: C7 H17 N O
CAS: 35161-67-2
Molecular weight: 131
Origin: NIST Mass Spectrometry Data Center, 1994
m/z	RELATIVE INTENSITY
18	140
19	83
26	203
27	2158
28	1381
29	357
30	3778
39	1117
40	277
41	2285
42	1628
43	3998
44	9999
45	1149
53	161
54	246
55	510
56	3283
57	330
60	241
68	57
69	168
70	473
71	220
72	203
73	57
74	5235
75	219
86	158
98	171
100	3784
101	319
130	66
131	279
