Mass Spectrum: Thiazole, 2-methyl-
Formula: C4 H5 N S
CAS: 3581-87-1
Molecular weight: 99
Origin: TNO Volatile Compounds in Food - Chemical Concepts
m/z	RELATIVE INTENSITY
24	26
25	83
26	500
27	402
28	526
29	21
33	51
34	42
36	24
37	84
38	155
39	65
40	156
41	223
42	537
43	58
44	85
45	637
46	125
47	93
49	44
51	44
52	139
54	266
55	12
56	25
57	1245
58	9999
59	641
60	452
61	31
64	31
68	36
70	81
73	34
83	21
84	52
95	12
98	104
99	7861
101	256
