Mass Spectrum: Cyclopentanemethanol
Formula: C6 H12 O
CAS: 3637-61-4
Molecular weight: 100
Origin: NIST Mass Spectrometry Data Center, 1990.
m/z	RELATIVE INTENSITY
14	93
15	197
18	192
26	401
27	2356
28	1609
29	1571
30	194
31	1810
32	131
38	443
39	3989
40	840
41	8923
42	1375
43	717
44	423
50	209
51	381
52	173
53	1011
54	1375
55	690
56	173
57	1559
63	90
65	416
67	9999
68	8969
69	8293
70	524
77	193
79	423
81	585
82	1352
83	105
