Mass Spectrum: Pentanoic acid, 4-oxo-, 2-methylpropyl ester
Formula: C9 H16 O3
CAS: 3757-32-2
Molecular weight: 172
Origin: W.Jennings, T.Shibamoto
m/z	RELATIVE INTENSITY
24	70
27	290
28	390
29	2582
30	290
39	70
40	70
41	3123
42	390
43	9999
44	280
45	70
51	290
55	851
56	3723
57	6095
58	731
61	70
70	70
71	2012
72	390
73	651
74	2813
75	390
81	70
83	70
98	390
99	7787
100	841
101	1331
116	70
117	1121
130	410
157	70
