Mass Spectrum: 2-Butenoic acid, 4-bromo-, ethyl ester, (E)-
Formula: C6 H9 Br O2
CAS: 37746-78-4
Molecular weight: 192
Origin: J.E. WILKINSON S-CUBED, SAN DIEGO, CA.
m/z	RELATIVE INTENSITY
40	2846
41	1332
42	605
43	562
44	346
45	692
53	112
54	320
55	3200
56	813
57	1609
68	4948
69	839
79	26
82	43
83	1176
84	4757
85	5172
86	329
93	95
95	285
99	182
108	26
112	2111
119	1462
121	1306
146	1003
147	5242
148	1237
149	5103
164	9999
165	320
166	9982
167	138
192	1073
194	908
