Mass Spectrum: Benzenemethanol, 2-chloro-.alpha.-[[(1-methylethyl)amino]methyl]-
Formula: C11 H16 Cl N O
CAS: 3811-25-4
Molecular weight: 213
Origin: R.E.Ardrey ET AL.Pharmaceutical Mass Spectra,L.,1985
m/z	RELATIVE INTENSITY
27	300
30	7707
39	100
41	300
42	100
43	701
44	100
51	300
56	200
72	9999
73	400
77	601
180	200
