Mass Spectrum: 10-Undecenoyl chloride
Formula: C11 H19 Cl O
CAS: 38460-95-6
Molecular weight: 202
Origin: Chemical Concepts
m/z	RELATIVE INTENSITY
26	132
27	2262
28	461
29	2428
30	52
35	13
36	130
37	7
38	71
39	2459
40	305
41	7811
42	1527
43	1627
44	56
45	5
49	41
50	48
51	160
52	82
53	871
54	1714
55	9999
56	1432
57	551
58	46
59	24
62	1
63	214
65	179
66	187
67	3310
68	1701
69	2954
70	581
71	336
72	13
73	1
75	42
76	9
77	177
78	124
79	1105
80	1003
81	2152
82	1180
83	2175
84	2178
85	467
86	29
89	33
90	24
91	213
92	105
93	645
94	660
95	1050
96	864
97	1514
98	4364
99	426
100	29
102	8
103	6
104	28
105	130
106	189
107	716
108	330
109	770
110	396
111	707
112	330
113	21
116	38
117	15
118	35
119	242
120	103
121	218
122	335
123	1040
124	531
125	356
126	26
131	3
132	48
133	143
134	17
135	54
136	1
137	731
138	187
139	50
146	5
147	11
148	89
149	736
150	91
151	141
152	7
165	22
166	574
167	630
168	67
202	16
203	2
204	5
205	1
