Mass Spectrum: L-Alanine, N-methyl-
Formula: C4 H9 N O2
CAS: 3913-67-5
Molecular weight: 103
Origin: S.N.ELOFF POTCHEFSTROOM UNIV., POTCHEFSTROOM, S. AFRICA
m/z	RELATIVE INTENSITY
30	2740
31	150
32	110
39	50
40	130
41	370
42	1610
43	680
44	680
45	370
46	30
52	50
53	30
54	100
55	110
56	1230
57	370
58	9999
59	470
60	50
70	70
73	80
74	80
88	180
102	30
103	2100
104	20
