Mass Spectrum: 4-(para-Chlorophenyl)-4-hydroxypiperidine
Formula: C11 H14 Cl N O
CAS: 39512-49-7
Molecular weight: 211
Origin: NIST Mass Spectrometry Data Center, 1994
m/z	RELATIVE INTENSITY
15	630
17	90
18	371
26	154
27	1334
28	5114
29	3361
30	5134
35	73
36	48
37	79
38	171
39	766
40	162
41	827
42	9999
43	4520
44	3640
45	36
46	38
49	72
50	1207
51	1394
52	229
53	464
54	241
55	825
56	6570
57	6139
58	541
59	36
60	370
61	107
62	198
63	640
64	174
65	401
66	57
67	55
68	564
69	73
70	272
71	119
72	143
73	256
74	411
75	2071
76	623
77	1345
78	222
79	74
80	371
81	306
82	1483
83	98
84	147
85	247
86	133
87	167
88	87
89	649
90	227
91	706
92	85
96	34
97	55
98	293
99	501
100	180
101	655
102	492
103	326
104	121
105	82
111	1818
112	777
113	706
114	346
115	540
116	171
117	99
118	106
125	798
126	209
127	697
128	576
129	1190
130	476
131	447
132	102
133	143
136	139
137	210
138	313
139	1967
140	417
141	613
142	108
143	87
149	137
150	43
151	219
152	70
153	127
154	651
155	185
156	277
157	146
158	1562
159	214
163	49
164	779
165	312
166	630
167	236
168	136
169	63
177	41
178	157
180	80
182	143
183	326
184	90
185	99
189	248
190	112
191	161
192	1784
193	3822
194	1071
195	1342
196	234
210	300
211	1048
212	241
213	342
214	54
