Mass Spectrum: Oxirane, (ethoxymethyl)-
Formula: C5 H10 O2
CAS: 4016-11-9
Molecular weight: 102
Origin: J.VOTH UNIV. OF CALIFORNIA, DAVIS, CALIFORNIA, 95616, USA
m/z	RELATIVE INTENSITY
12	69
13	203
14	928
15	2713
16	110
17	51
18	149
19	335
24	14
25	85
26	952
27	4948
28	1106
29	9999
30	870
31	9360
32	116
33	28
37	39
38	70
39	282
40	160
41	431
42	531
43	2840
44	3053
45	2572
46	69
47	52
53	16
54	13
55	176
56	208
57	2502
58	2984
59	2337
60	85
61	21
71	142
72	82
73	78
74	23
87	38
101	13
