Mass Spectrum: (E)-1-Propene-1,2,3-tricarboxylic acid
Formula: C6 H6 O6
CAS: 4023-65-8
Molecular weight: 174
Origin: Japan AIST/NIMC Database- Spectrum MS-NW-1756
m/z	RELATIVE INTENSITY
12	119
13	50
14	129
15	159
16	389
17	219
18	849
19	30
24	50
25	219
26	399
27	709
28	1079
29	809
30	40
31	159
32	10
33	80
34	70
36	229
37	1239
38	2199
39	9999
40	5789
41	1789
42	1069
43	1119
44	6679
45	3349
46	119
47	60
48	30
49	60
50	90
51	80
52	60
53	589
54	90
55	869
56	239
57	339
58	469
59	30
60	209
61	10
62	10
63	30
64	10
65	60
66	729
67	889
68	3409
69	699
70	50
71	90
72	40
73	80
74	20
77	80
78	30
79	119
80	40
81	80
82	129
83	249
84	3909
85	519
86	739
87	80
88	10
91	30
92	10
93	40
94	299
95	70
96	30
97	40
98	30
99	50
100	70
101	30
102	10
105	20
106	30
107	60
108	30
109	60
110	60
111	349
112	2549
113	209
114	20
115	10
121	40
122	20
123	30
124	20
125	20
126	20
127	10
128	399
129	149
130	289
131	20
133	10
134	20
135	20
136	20
137	10
138	1619
139	469
140	50
141	10
149	10
151	10
152	40
153	20
154	10
156	349
157	50
