Mass Spectrum: 1-Hexanol, 6-amino-
Formula: C6 H15 N O
CAS: 4048-33-3
Molecular weight: 117
Origin: Japan AIST/NIMC Database- Spectrum MS-NW-8879
m/z	RELATIVE INTENSITY
15	30
17	30
18	109
26	10
27	179
28	259
29	219
30	9999
31	459
32	20
39	149
40	30
41	409
42	279
43	219
44	439
45	759
46	30
48	10
53	40
54	80
55	229
56	319
57	90
58	40
59	99
62	10
67	80
68	40
69	90
70	50
71	20
72	99
73	40
74	10
79	10
81	60
82	119
83	20
86	199
87	229
88	10
97	10
98	10
99	20
100	109
116	10
117	20
118	50
