Mass Spectrum: 4-Methyl-2-propylphenol
Formula: C10 H14 O
CAS: 4074-46-8
Molecular weight: 150
Origin: J.MACAK, DEP. COKE GAS TECH., PRAGUE INST. CHEM. TECH., CZEC
m/z	RELATIVE INTENSITY
38	100
39	800
40	100
41	500
42	200
51	600
52	300
53	400
55	200
62	100
63	300
64	100
65	500
66	100
67	100
77	1800
78	400
79	300
89	200
91	1600
92	300
93	600
94	100
103	200
105	200
107	400
108	200
115	200
116	100
117	100
119	100
120	200
121	9999
133	200
134	100
135	100
148	100
149	100
150	2700
151	300
