Mass Spectrum: Gona-1,3,5(10)-trien-17-one, 3-methoxy-
Formula: C18 H22 O2
CAS: 4147-10-8
Molecular weight: 270
Origin: CARL DJERASSI DEPT OF CHEM STANFORD UNIV STANFORD CALIF 94305
m/z	RELATIVE INTENSITY
40	100
41	1100
42	100
43	600
44	400
45	100
50	100
51	300
52	100
53	400
54	100
55	800
56	100
57	100
63	200
64	100
65	400
66	100
67	400
68	100
69	100
71	100
75	100
76	100
77	800
78	200
79	400
81	200
83	700
86	100
89	200
91	1000
92	100
93	200
97	100
99	100
102	200
103	300
104	200
105	200
106	100
107	200
109	300
115	1300
116	400
117	500
119	100
121	700
122	300
127	100
128	800
129	700
130	200
131	300
132	100
133	100
134	1100
135	400
136	100
139	100
141	400
142	200
143	300
144	500
145	700
146	300
147	800
148	200
149	100
152	200
153	200
154	100
155	200
157	100
158	600
159	2200
160	2300
161	700
162	100
165	200
167	100
169	100
171	700
172	400
173	1100
174	500
183	100
184	400
185	400
186	1200
187	500
188	100
197	100
198	100
199	2500
200	500
201	100
211	100
212	100
213	500
214	700
215	100
227	300
228	100
239	100
241	200
242	500
255	200
269	400
270	9999
271	1900
272	200
