Mass Spectrum: Benzeneacetic acid, 2-hydroxy-, ethyl ester
Formula: C10 H12 O3
CAS: 41873-65-8
Molecular weight: 180
Origin: R.SELF AGRICULTURAL RES., FOOD RES. INSTITUTE, NORWICH, U.K.
m/z	RELATIVE INTENSITY
27	778
29	1334
31	1371
39	927
43	407
44	445
45	871
46	445
50	463
51	963
52	630
77	2075
78	3750
79	963
105	481
106	7038
107	5551
108	574
134	9999
135	1259
180	3334
