Mass Spectrum: 3-Hexanol, 2,2-dimethyl-
Formula: C8 H18 O
CAS: 4209-90-9
Molecular weight: 130
Origin: NIST Mass Spectrometry Data Center, 1990.
m/z	RELATIVE INTENSITY
15	231
27	1791
28	583
29	2252
31	814
39	2566
41	6306
42	626
43	3816
44	751
45	1887
51	261
53	747
55	9999
56	1897
57	5551
58	295
59	1021
67	360
69	2688
70	930
71	1250
72	3489
73	6306
74	292
83	514
87	3013
97	494
115	172
