Mass Spectrum: Phenol, 2-(1-phenylethyl)-
Formula: C14 H14 O
CAS: 4237-44-9
Molecular weight: 198
Origin: V.G.Zaikin, TIPS, Russian Acad. Sci.
m/z	RELATIVE INTENSITY
51	600
55	500
77	600
91	1101
103	700
120	800
121	400
152	600
153	500
155	600
165	1701
181	800
183	9999
184	1401
198	4804
199	740
200	50
