Mass Spectrum: Phenol, m-(1-methyl-3-propyl-3-pyrrolidinyl)-
Formula: C14 H21 N O
CAS: 428-37-5
Molecular weight: 219
Origin: Finnigan MAT: Toxicological Library (LIBR-TX)
m/z	RELATIVE INTENSITY
42	1883
44	1798
53	95
55	91
57	9999
58	508
65	184
77	191
79	106
82	102
91	186
105	96
107	213
133	192
147	100
175	96
176	96
177	621
218	104
219	309
