Mass Spectrum: Acenaphthene, 5,6-dinitro-
Formula: C12 H8 N2 O4
CAS: 4406-87-5
Molecular weight: 244
Origin: Chemical Concepts
m/z	RELATIVE INTENSITY
34	219
36	119
37	109
38	299
40	359
41	419
42	199
43	519
44	109
46	770
49	50
50	469
51	1180
52	279
53	129
55	389
56	129
57	249
58	50
59	60
61	179
62	750
63	1280
64	229
65	229
66	60
67	90
68	60
69	189
70	119
71	109
74	720
75	1210
76	519
77	439
78	129
79	60
81	60
82	60
83	109
84	109
85	169
86	439
87	610
88	429
89	610
90	90
91	90
95	40
97	109
98	379
99	319
100	229
101	279
102	239
103	80
104	40
109	50
110	139
111	149
112	149
113	680
114	780
115	259
116	80
117	70
121	50
122	109
123	90
125	259
126	459
127	560
128	590
129	99
130	70
135	60
136	50
137	309
139	9999
140	4333
141	560
142	139
147	40
149	249
150	710
151	570
152	269
153	189
154	99
155	109
156	269
157	50
164	50
166	99
168	6826
169	720
170	80
182	50
184	50
196	70
198	2661
199	369
200	40
213	50
214	399
215	50
228	40
244	3522
245	439
246	50
