Mass Spectrum: Cyclobutanemethanol
Formula: C5 H10 O
CAS: 4415-82-1
Molecular weight: 86
Origin: NIST Mass Spectrometry Data Center, 1990.
m/z	RELATIVE INTENSITY
14	15
15	174
16	92
17	47
18	98
26	529
27	2180
28	1657
29	3179
30	798
31	1604
32	84
37	139
38	287
39	2088
40	718
41	1363
42	291
43	683
44	1479
45	249
50	245
51	226
52	94
53	696
54	94
55	1536
56	94
57	9999
58	1609
59	90
65	68
67	1158
68	700
69	66
71	250
