Mass Spectrum: 2-p-Tolylpyridine
Formula: C12 H11 N
CAS: 4467-06-5
Molecular weight: 169
Origin: N.Klyuev, Institute of Ecology & Evolution, RAS, Moscow
m/z	RELATIVE INTENSITY
39	1621
41	721
51	561
63	420
65	2112
77	450
78	530
84	300
89	230
91	861
115	601
139	420
140	330
141	561
154	981
166	571
167	2863
168	7277
169	9999
170	1351
