Mass Spectrum: 1,4-Dioxane-2,6-dione
Formula: C4 H4 O4
CAS: 4480-83-5
Molecular weight: 116
Origin: Japan AIST/NIMC Database- Spectrum MS-NW-6470
m/z	RELATIVE INTENSITY
12	60
13	249
14	1159
15	779
16	379
18	10
24	10
25	30
26	30
27	20
28	949
29	4539
30	379
31	359
32	10
36	20
40	30
41	209
42	9999
43	979
44	9059
45	219
46	20
56	50
59	20
60	10
