Mass Spectrum: Naphthalene, 1,2,3,4,4a,5,6,8a-octahydro-4a,8-dimethyl-2-(1-methylethenyl)-, [2R-(2.alpha.,4a.alpha.,8a.beta.)]-
Formula: C15 H24
CAS: 473-13-2
Molecular weight: 204
Origin: N.W. DAVIES, UNIV. OF TASMANIA, HOBART, TASMANIA, AUSTRALIA
m/z	RELATIVE INTENSITY
23	150
26	100
27	1530
29	2140
32	130
38	100
39	2150
41	6350
42	410
43	1570
47	120
50	150
51	500
52	270
53	2570
54	290
55	4590
56	290
57	630
58	80
59	100
63	150
64	120
65	1150
66	390
67	3020
68	1030
69	2550
70	210
71	290
72	120
73	150
77	2570
78	600
79	4020
80	970
81	6410
82	750
83	500
84	80
85	80
87	250
89	70
91	4510
92	970
93	7460
94	1650
95	3610
96	480
97	500
102	70
103	290
104	210
105	4950
106	1050
107	6350
108	2330
109	4110
110	620
115	290
116	130
117	480
118	190
119	2350
120	1100
121	3120
122	2530
123	2020
124	190
125	100
128	190
129	210
130	100
131	460
132	170
133	4800
134	1360
135	1260
136	480
144	250
145	450
146	190
147	2760
148	1010
149	1880
150	250
159	100
160	130
161	3780
162	1640
163	630
165	80
175	3090
176	750
177	80
189	9999
190	1510
191	150
192	410
193	80
204	7610
205	1240
206	100
