Mass Spectrum: 2,6-Dichloropyrazine
Formula: C4 H2 Cl2 N2
CAS: 4774-14-5
Molecular weight: 148
Origin: Japan AIST/NIMC Database- Spectrum MS-NW-9338
m/z	RELATIVE INTENSITY
12	10
13	10
24	70
25	239
26	60
27	80
28	589
29	10
31	20
32	10
35	60
36	129
37	90
38	239
39	229
40	70
43	60
44	20
47	389
48	50
49	119
50	249
51	2769
52	299
53	40
56	20
59	99
60	3269
61	149
62	1159
63	40
64	40
66	40
73	60
74	50
75	30
76	99
77	199
78	30
82	10
85	169
86	2899
87	1779
88	999
89	559
90	20
95	10
97	10
113	6919
114	359
115	2239
116	109
121	60
123	40
148	9999
149	539
150	6439
151	339
152	1039
153	50
