Mass Spectrum: 2-Hepten-4-ol
Formula: C7 H14 O
CAS: 4798-59-8
Molecular weight: 114
Origin: NIST Mass Spectrometry Data Center, 1990.
m/z	RELATIVE INTENSITY
15	239
17	51
18	134
26	182
27	1957
28	351
29	1113
30	67
31	476
32	24
37	81
38	233
39	1967
40	444
41	3144
42	444
43	3927
44	258
45	126
50	133
51	253
53	1436
54	525
55	953
56	91
57	1017
58	281
62	49
63	64
65	182
66	92
67	543
68	172
69	507
70	49
71	9999
72	500
73	63
77	155
79	394
81	953
82	60
85	111
86	750
87	35
95	55
96	387
97	64
98	35
99	773
100	52
114	202
