Mass Spectrum: Caulophylline
Formula: C12 H16 N2 O
CAS: 486-86-2
Molecular weight: 204
m/z	RELATIVE INTENSITY
52	180
54	120
55	70
57	330
58	9999
59	400
65	300
66	170
67	150
68	110
77	290
78	200
79	180
80	110
82	300
91	150
93	120
94	180
96	200
104	160
105	120
109	100
117	350
118	230
130	130
132	160
133	110
134	130
146	651
147	170
160	540
161	140
204	2602
205	430
