Mass Spectrum: Muco-Inositol
Formula: C6 H12 O6
CAS: 488-55-1
Molecular weight: 180
m/z	RELATIVE INTENSITY
39	110
41	160
42	470
43	651
44	180
45	350
47	70
53	50
54	120
55	260
56	150
57	310
58	80
59	40
60	1531
61	340
69	140
70	60
71	881
72	520
73	9999
74	500
75	70
81	50
83	50
84	40
85	130
89	230
90	50
91	250
97	80
98	40
101	50
102	871
103	50
109	50
115	50
125	10
126	20
127	30
128	10
144	280
145	30
149	10
163	10
181	20
