Mass Spectrum: Azulene, 1,4-dimethyl-7-(1-methylethyl)-
Formula: C15 H18
CAS: 489-84-9
Molecular weight: 198
Origin: Chemical Concepts
m/z	RELATIVE INTENSITY
26	98
29	96
30	7
32	2
37	8
38	30
39	431
40	62
41	264
42	6
47	6
49	7
50	128
51	385
52	65
53	118
54	13
55	95
56	1
57	42
58	23
61	9
62	73
63	383
64	167
65	170
66	17
67	8
69	11
70	84
71	84
73	11
74	104
75	190
76	480
77	399
78	109
79	16
80	3
81	55
82	293
83	498
84	210
85	138
86	49
87	85
88	121
89	377
90	74
91	350
92	56
93	1
94	10
95	8
96	8
97	3
98	36
99	220
100	9
101	57
102	109
103	48
104	15
105	34
106	2
108	8
110	14
111	16
112	7
113	46
114	39
115	823
116	123
117	14
118	6
121	8
122	6
123	6
125	42
126	124
127	397
128	1130
129	388
130	71
131	9
132	19
133	8
134	7
136	6
137	9
138	37
139	377
140	135
141	831
142	480
143	377
144	43
147	6
149	14
150	76
151	268
152	1197
153	1836
154	496
155	1282
156	280
157	45
158	12
160	12
162	9
163	84
164	110
165	1153
166	515
167	1220
168	1584
169	414
170	80
171	1
172	3
174	5
175	19
176	53
177	65
178	162
179	122
180	56
181	374
182	379
183	9999
184	1572
185	82
186	7
188	5
191	8
192	7
194	13
195	15
196	21
197	457
198	6676
199	1051
200	54
