Mass Spectrum: Guaiol
Formula: C15 H26 O
CAS: 489-86-1
Molecular weight: 222
Origin: Chemical Concepts
m/z	RELATIVE INTENSITY
28	221
29	521
30	27
31	462
39	426
40	87
41	1537
42	96
43	1365
44	46
45	112
50	27
51	133
52	80
53	465
54	55
55	1375
56	87
57	299
58	41
59	4568
60	186
61	26
63	60
64	38
65	344
66	101
67	994
68	349
69	1125
70	102
71	296
72	79
73	70
74	27
75	35
76	32
77	806
78	232
79	1530
80	263
81	2518
82	514
83	511
84	52
85	75
87	63
88	34
89	36
90	31
91	1917
92	327
93	2630
94	698
95	1797
96	673
97	132
99	27
102	29
103	134
104	73
105	3171
106	545
107	3596
108	833
109	671
110	200
111	67
112	24
115	130
116	65
117	212
118	65
119	1814
120	371
121	1389
122	557
123	277
124	26
125	30
127	35
128	76
129	76
130	40
131	180
132	46
133	1454
134	385
135	1415
136	292
137	68
141	26
142	23
143	31
144	21
145	175
146	61
147	1045
148	454
149	1499
150	237
151	39
159	87
160	112
161	9999
162	1781
163	2839
164	1344
165	183
173	34
175	229
176	301
177	53
187	31
189	2480
190	402
191	30
203	46
204	2791
205	545
206	51
207	187
208	29
222	1172
223	208
224	18
