Mass Spectrum: Carnegine
Formula: C13 H19 N O2
CAS: 490-53-9
Molecular weight: 221
Origin: J.L.MASSINGILL TEXAS CHRISTIAN UNIV., FORT WORTH, TEXAS, USA
m/z	RELATIVE INTENSITY
49	103
50	669
51	515
52	321
53	315
54	142
55	484
56	412
57	466
58	1733
59	327
60	84
61	60
62	145
63	327
64	145
65	333
66	121
67	187
68	103
69	381
70	121
71	248
72	75
73	96
74	303
75	139
76	151
77	566
78	260
79	272
80	96
81	157
82	112
83	154
84	78
85	121
86	51
87	166
88	90
89	187
90	127
91	560
92	151
93	118
94	96
95	175
96	84
97	130
98	54
99	54
100	54
101	90
102	151
103	630
104	169
105	248
106	160
107	130
108	69
109	96
110	69
111	87
112	60
113	60
114	60
115	233
116	127
117	206
118	181
119	145
120	100
121	133
122	54
123	54
124	63
125	63
126	75
127	75
128	87
129	87
130	118
131	193
132	278
133	157
134	106
135	209
136	75
137	63
138	63
139	63
140	63
141	63
142	63
143	84
144	127
145	309
146	212
147	151
148	409
149	130
150	96
151	57
152	57
153	57
154	57
155	57
156	57
157	57
158	81
159	121
160	275
161	321
162	466
163	251
164	163
165	103
166	45
167	45
168	45
169	45
170	45
171	45
172	45
173	78
174	196
175	133
176	196
177	124
178	421
179	127
180	75
181	54
182	54
183	54
184	54
185	54
186	54
187	54
188	154
189	163
190	987
191	448
192	154
193	54
194	45
195	45
196	45
197	45
198	45
199	45
200	45
201	45
202	72
203	254
204	460
205	327
206	9999
207	1163
208	154
209	48
210	42
211	42
212	42
213	42
214	42
215	42
216	45
217	45
218	81
219	157
220	284
221	206
222	57
