Mass Spectrum: Metixene
Formula: C20 H23 N S
CAS: 4969-02-2
Molecular weight: 309
Origin: Patti Price, Georgia Bureau of Investigation, Decatur, Georgia
m/z	RELATIVE INTENSITY
41	4654
42	3393
43	1040
44	6926
45	370
50	20
51	120
52	40
53	160
54	110
55	250
56	210
57	1441
58	7486
59	310
62	30
63	90
65	50
66	20
67	160
68	200
69	390
70	630
71	110
74	30
75	30
76	60
77	110
78	40
79	50
80	50
81	60
82	610
83	160
84	920
85	60
87	40
88	20
89	80
90	20
91	20
92	20
93	50
94	80
95	40
96	410
97	620
98	360
99	6425
100	430
101	50
102	50
103	20
108	70
109	30
110	380
111	90
112	1971
113	190
114	60
115	140
116	20
121	30
125	20
126	120
127	110
128	60
134	60
135	20
137	20
138	30
139	200
140	30
145	60
147	30
149	20
150	140
151	350
152	1221
153	420
154	30
158	40
162	40
163	390
164	430
165	3152
166	400
169	90
170	60
171	120
172	20
176	100
177	50
178	200
179	40
184	60
187	20
189	60
190	20
194	20
195	460
196	250
197	9999
198	1531
199	330
200	50
201	10
202	130
203	60
204	20
208	110
209	130
210	1651
211	340
212	50
215	20
221	140
222	60
223	40
234	80
235	100
236	30
307	10
308	160
309	3843
310	890
311	270
312	40
