Mass Spectrum: 1-Octene, 3,7-dimethyl-
Formula: C10 H20
CAS: 4984-01-4
Molecular weight: 140
Origin: NIST Mass Spectrometry Data Center, 1990.
m/z	RELATIVE INTENSITY
15	125
27	2523
28	832
29	2370
32	125
39	3709
40	864
41	8499
42	1846
43	7363
44	316
50	166
51	395
52	240
53	1598
54	1391
55	9999
56	8875
57	2835
58	136
65	294
66	125
67	1205
68	796
69	6994
70	9196
71	1489
77	201
79	227
81	381
82	273
83	1892
84	1720
85	470
95	107
96	109
97	601
98	109
111	1231
112	465
125	292
140	226
