Mass Spectrum: 4-Hydroxy-3-hexanone
Formula: C6 H12 O2
CAS: 4984-85-4
Molecular weight: 116
Origin: Japan AIST/NIMC Database- Spectrum MS-NW-6628
m/z	RELATIVE INTENSITY
14	30
15	119
17	30
18	109
25	10
26	199
27	1089
28	359
29	2789
30	129
31	4259
32	40
33	10
37	30
38	50
39	369
40	60
41	2059
42	139
43	309
44	40
45	189
50	20
51	30
52	10
53	40
54	10
55	209
56	179
57	4179
58	2309
59	9999
60	349
61	20
65	10
67	20
68	10
69	239
70	90
71	40
73	159
74	109
75	10
77	20
78	10
79	20
80	30
81	10
82	10
83	20
85	20
86	20
87	149
88	90
97	10
98	40
99	20
101	20
114	50
115	30
116	229
117	30
