Mass Spectrum: Benoxaprofen
Formula: C16 H12 Cl N O3
CAS: 51234-28-7
Molecular weight: 301
Origin: Drug Lab
m/z	RELATIVE INTENSITY
43	60
45	280
50	170
51	280
52	60
53	90
55	50
62	110
63	440
64	170
65	1411
66	110
73	60
74	70
75	260
76	150
77	110
79	50
87	60
88	50
89	510
90	220
91	2612
92	260
93	110
96	110
102	110
111	180
113	70
114	60
119	1692
120	190
121	70
128	480
129	170
137	230
138	110
139	220
140	50
149	130
150	60
165	60
191	60
192	50
193	50
220	60
221	100
228	50
229	120
230	80
231	50
242	160
244	50
254	70
256	9999
257	1722
258	3423
259	540
301	4974
302	951
303	1722
304	300
