Mass Spectrum: N-propyl-butyramide
Formula: C7 H15 N O
CAS: 5129-73-7
Molecular weight: 129
Origin: AIR PRODUCTS & CHEMICALS, INC BOX 538, ALLENTOWN, PA 18105, D M PAREES
m/z	RELATIVE INTENSITY
30	6950
31	150
39	1610
40	310
41	3960
42	1280
43	9999
44	2680
54	250
55	700
56	320
57	200
58	820
59	730
60	520
69	120
71	4780
72	1090
73	1100
86	1930
88	470
100	860
101	3310
102	180
114	900
128	70
129	670
130	90
