Mass Spectrum: Tetradecanoic acid, 12-methyl-, methyl ester
Formula: C16 H32 O2
CAS: 5129-66-8
Molecular weight: 256
Origin: R.T.HOLMAN,UNIVERSITY OF MINNESOTA
m/z	RELATIVE INTENSITY
26	100
27	1922
28	1032
29	5766
30	150
31	200
32	20
38	30
39	1582
40	340
41	8819
42	1802
43	6897
44	310
45	380
46	10
47	10
48	10
49	10
50	30
51	70
52	60
53	731
54	541
55	7457
56	1862
57	5536
58	320
59	2422
60	120
61	50
62	10
63	20
65	120
66	60
67	901
68	350
69	3554
70	791
71	1071
72	90
73	490
74	9999
75	1692
76	100
77	110
78	40
79	240
80	70
81	671
82	200
83	1972
84	521
85	511
86	50
87	7347
88	731
89	70
90	10
91	70
92	20
93	190
94	50
95	490
96	180
97	1582
98	450
99	160
100	60
101	671
102	80
103	30
104	20
105	70
106	20
107	160
108	40
109	260
110	100
111	791
112	130
113	100
114	30
115	400
116	110
117	20
118	10
119	20
120	10
121	220
122	50
123	130
124	60
125	330
126	60
127	30
128	20
129	621
130	160
131	20
132	10
133	20
134	10
135	190
136	30
137	70
138	30
139	160
140	30
141	30
142	20
143	1291
144	140
145	20
146	10
147	10
148	10
149	90
150	20
151	30
152	30
153	140
154	60
155	60
157	240
158	40
159	10
161	20
162	20
163	20
164	10
165	20
166	10
167	80
168	30
169	20
170	10
171	190
172	40
173	10
177	280
178	60
179	10
180	20
181	20
182	20
183	20
185	180
186	50
187	10
191	50
192	10
193	10
194	20
195	230
196	40
197	20
199	841
200	160
201	120
202	20
203	10
205	10
206	10
207	20
208	10
209	40
210	10
211	10
213	651
214	110
215	10
223	20
224	20
225	280
226	60
227	280
228	40
229	10
239	10
241	30
242	10
256	731
257	144
258	10
