Mass Spectrum: Morphine-3-acetate
Formula: C19 H21 N O4
CAS: 5140-28-3
Molecular weight: 327
Origin: Drug Lab
m/z	RELATIVE INTENSITY
40	90
41	300
42	3373
43	5075
44	2142
45	60
50	210
51	290
52	190
53	591
54	120
55	891
56	390
57	510
58	470
59	861
60	100
62	100
63	400
64	110
65	571
66	170
67	360
68	310
69	90
70	1501
71	90
72	120
74	130
75	160
76	220
77	1251
78	320
79	280
80	250
81	2112
82	821
83	340
84	140
86	100
88	80
89	621
90	230
91	891
92	150
93	170
94	1381
95	260
96	641
97	230
98	60
99	60
100	100
101	280
102	420
103	661
104	240
105	330
106	140
107	480
108	210
109	661
110	300
111	110
112	240
113	240
114	310
115	2933
116	591
117	390
118	270
119	140
120	230
121	160
122	170
124	2492
125	260
126	290
127	1251
128	1441
129	751
130	350
131	871
132	400
133	300
134	360
135	200
136	350
137	110
138	70
139	841
140	190
141	1011
142	320
143	420
144	901
145	470
146	1261
147	601
148	480
149	170
150	230
151	380
152	1541
153	1151
154	320
155	280
156	360
157	561
158	290
159	160
160	761
161	841
162	6846
163	1011
164	771
165	1341
166	340
167	460
168	510
169	721
170	440
171	741
172	500
173	741
174	2152
175	971
176	591
177	160
178	170
179	200
180	180
181	1261
182	340
183	410
184	450
185	661
186	390
187	320
188	270
189	170
190	210
191	160
192	130
193	190
194	220
195	310
196	360
197	661
198	801
199	561
200	841
201	280
202	400
203	460
204	330
205	140
206	90
207	160
208	170
209	380
210	450
211	520
212	350
213	540
214	1241
215	4704
216	1451
217	100
220	60
221	80
222	130
223	130
224	210
225	430
226	991
227	681
228	1021
229	320
230	70
231	80
232	70
235	60
236	100
237	130
238	110
239	70
240	480
241	100
242	581
243	160
244	70
245	50
246	50
250	230
251	90
252	180
253	180
254	360
255	100
256	671
257	260
258	200
264	80
265	70
266	1772
267	1692
268	1882
269	320
270	480
271	140
281	120
282	270
283	290
284	2732
285	9999
286	1591
287	240
298	300
308	130
309	90
310	811
311	270
312	180
313	40
325	60
326	1131
327	8948
328	1682
329	240
