Mass Spectrum: Cyclohexane, 1-bromo-2-chloro-, cis-
Formula: C6 H10 Br Cl
CAS: 51422-75-4
Molecular weight: 196
Origin: J. M. PECHINE
m/z	RELATIVE INTENSITY
27	510
29	115
39	775
40	145
41	930
51	190
53	555
54	170
55	255
65	120
67	105
75	420
77	340
79	1580
80	165
81	9999
82	680
117	1600
118	105
119	545
196	475
198	610
200	145
