Mass Spectrum: Allopregnan-3.alpha.-ol-20-one
Formula: C21 H34 O2
CAS: 516-54-1
Molecular weight: 318
Origin: LAC, NIDDK, NIH, Bethesda, MD 20892
m/z	RELATIVE INTENSITY
41	1799
42	225
43	9999
44	384
45	210
47	103
48	32
49	499
51	272
53	512
54	170
55	1631
56	134
57	1377
58	160
65	227
66	91
67	1201
68	296
69	557
70	88
71	915
77	746
78	181
79	1246
80	243
81	989
82	106
83	391
84	1294
85	351
86	126
91	1118
92	57
93	1044
94	287
95	714
96	44
97	87
103	34
105	735
106	212
107	767
108	139
109	435
110	31
111	43
115	106
117	236
118	34
119	496
120	253
121	384
122	195
123	150
124	35
129	129
131	268
133	427
134	234
135	320
137	93
141	76
143	102
145	328
146	44
147	311
148	115
149	211
157	41
159	240
160	107
161	237
162	33
163	80
171	36
173	322
174	102
175	178
185	32
187	150
201	42
205	31
213	143
215	456
216	90
217	190
218	60
229	40
231	190
232	43
233	298
234	38
255	80
257	288
258	134
259	38
260	281
261	35
267	36
273	83
274	187
283	41
285	139
298	132
300	397
301	99
302	136
303	155
316	275
317	40
318	828
319	186
