Mass Spectrum: Naphthalen-1,4-imine,1,2,3,4-tetrahydro-
Formula: C10 H11 N
CAS: 5176-30-7
Molecular weight: 145
Origin: ASES Database, Dalian Institute, P.R. China
m/z	RELATIVE INTENSITY
39	2382
40	300
41	700
42	200
43	300
50	1201
51	1981
52	600
59	1571
62	190
63	1201
64	2802
65	1090
66	1111
68	190
69	700
71	190
72	500
74	400
75	590
76	590
77	1601
78	400
83	290
85	200
86	300
87	190
88	190
89	2812
90	4794
91	880
115	400
116	400
117	9999
118	900
127	100
128	200
129	100
130	190
145	90
