Mass Spectrum: Methandriol
Formula: C20 H32 O2
CAS: 521-10-8
Molecular weight: 304
Origin: Japan AIST/NIMC Database- Spectrum MS-NW-2612
m/z	RELATIVE INTENSITY
14	10
15	80
16	10
17	99
18	449
19	10
26	40
27	609
28	269
29	1029
30	40
31	189
32	50
38	20
39	829
40	169
41	2909
42	159
43	5099
44	179
45	239
50	40
51	259
52	129
53	1069
54	149
55	2639
56	159
57	919
58	439
59	219
60	10
62	10
63	109
64	60
65	659
66	239
67	2149
68	309
69	959
70	80
71	1319
72	399
73	50
74	20
75	30
76	60
77	1709
78	499
79	2989
80	489
81	2989
82	369
83	579
84	99
85	529
86	80
87	50
88	30
89	90
90	50
91	4139
92	989
93	3089
94	889
95	2339
96	319
97	509
98	129
99	139
100	40
101	50
102	80
103	379
104	379
105	4459
106	1359
107	4359
108	1309
109	1479
110	279
111	269
112	80
113	99
114	50
115	619
116	339
117	1419
118	939
119	3399
120	2369
121	2229
122	809
123	739
124	409
125	469
126	70
127	159
128	589
129	949
130	479
131	2119
132	859
133	2929
134	1249
135	2289
136	469
137	299
138	189
139	90
140	20
141	449
142	349
143	2269
144	939
145	4509
146	1199
147	2459
148	899
149	619
150	199
151	309
152	119
153	139
154	99
155	479
156	709
157	1739
158	2279
159	3269
160	1749
161	2349
162	729
163	599
164	219
165	309
166	119
167	139
168	90
169	579
170	269
171	1629
172	889
173	2219
174	1019
175	1969
176	769
177	419
178	319
179	229
180	80
181	119
182	90
183	569
184	259
185	1109
186	1039
187	1389
188	499
189	469
190	189
191	189
192	179
193	479
194	90
195	199
196	99
197	1719
198	519
199	1039
200	489
201	1059
202	339
203	229
204	139
205	109
206	40
207	50
208	40
209	80
210	70
211	1439
212	859
213	6879
214	1479
215	2679
216	619
217	309
218	109
219	219
220	60
221	40
222	30
223	50
224	40
225	319
226	779
227	1679
228	3019
229	1899
230	499
231	2859
232	679
233	239
234	70
235	60
236	30
237	50
238	60
239	269
240	149
241	109
242	129
243	239
244	579
245	559
246	1519
247	359
248	60
249	239
250	70
251	319
252	109
253	9999
254	2069
255	379
256	60
257	159
258	80
259	40
260	60
261	40
262	40
263	20
264	109
265	40
266	149
267	129
268	2519
269	719
270	189
271	3879
272	819
273	109
274	20
275	20
276	20
277	10
278	10
279	10
280	10
281	10
282	30
283	20
284	90
285	70
286	3629
287	789
288	109
289	709
290	149
291	20
292	10
293	10
295	10
296	10
297	10
298	10
299	10
300	20
301	20
302	119
303	60
304	4779
305	1049
306	129
307	10
