Mass Spectrum: Mestanolone
Formula: C20 H32 O2
CAS: 521-11-9
Molecular weight: 304
Origin: P.A. Leclercq, Lab. Instrum. Anal., Tech. Univ. Eindhoven, Netherlands
m/z	RELATIVE INTENSITY
39	1169
41	5360
43	9999
44	299
45	409
51	159
53	1969
55	6130
56	499
57	1469
58	1509
59	499
65	899
67	4459
68	1809
69	1749
71	3529
72	1009
77	1949
79	4049
80	889
81	4509
82	889
83	1169
84	139
85	379
91	3479
92	649
93	3249
94	809
95	3209
96	699
97	1059
98	229
99	329
103	229
105	2689
106	899
107	2989
108	1489
109	2809
110	919
111	949
112	159
115	349
116	179
117	639
118	539
119	2069
120	969
121	2499
122	1869
123	4839
124	2369
125	599
128	219
129	319
130	139
131	999
132	419
133	1759
134	779
135	1879
136	769
137	1329
138	209
142	109
143	279
144	189
145	1149
146	369
147	1569
148	519
149	1179
150	319
151	379
152	99
157	339
158	239
159	1569
160	479
161	2059
162	1409
163	4609
164	989
165	459
171	369
172	269
173	1179
174	809
175	1519
176	1069
177	679
178	219
179	259
185	139
186	139
187	689
188	279
189	1119
190	449
191	199
192	99
197	129
199	229
201	449
202	139
203	399
204	499
205	209
211	249
213	1069
215	1949
216	679
217	1189
218	259
219	239
229	1949
230	1169
231	4199
232	799
233	719
234	429
235	109
244	1469
245	329
246	1249
247	2939
248	509
253	189
257	189
271	1759
272	399
286	1209
287	269
289	2959
290	579
304	869
305	209
