Mass Spectrum: [1,1'-Biphenyl]-4-carbonitrile, 4'-(pentyloxy)-
Formula: C18 H19 N O
CAS: 52364-71-3
Molecular weight: 265
Origin: P.A. Leclercq, Lab. Instrum. Anal., Eindhoven Univ. Technol., Netherlands
m/z	RELATIVE INTENSITY
27	549
29	1029
39	489
41	919
43	2129
55	439
71	319
139	339
140	739
151	389
166	739
177	159
178	209
195	9999
196	1509
265	849
266	179
