Mass Spectrum: Gluconic acid
Formula: C6 H12 O7
CAS: 526-95-4
Molecular weight: 196
Origin: J. Little, Eastman chemical company.
m/z	RELATIVE INTENSITY
27	1792
28	3994
29	4894
30	1191
31	4294
41	1191
42	2392
43	6696
44	4394
45	3193
55	1692
56	1391
57	3393
58	1591
60	5895
61	9999
70	1091
71	4394
72	2092
73	9198
74	1001
76	3293
85	3693
86	1001
89	791
91	701
97	601
100	1001
101	791
103	2793
114	500
118	500
119	791
142	500
147	500
149	100
160	2392
161	400
