Mass Spectrum: Mucic acid
Formula: C6 H10 O8
CAS: 526-99-8
Molecular weight: 210
Origin: Japan AIST/NIMC Database- Spectrum MS-NW-9173
m/z	RELATIVE INTENSITY
12	30
13	20
14	139
15	589
16	149
17	799
18	3219
19	139
24	10
25	60
26	379
27	1169
28	1739
29	3239
30	839
31	1669
32	269
33	20
34	70
36	90
37	119
38	199
39	839
40	199
41	299
42	1519
43	3649
44	8079
45	1689
46	169
47	169
48	10
49	40
50	60
51	50
52	40
53	199
54	239
55	1609
56	589
57	1489
58	2489
59	369
60	2419
61	4709
62	119
63	40
64	10
65	20
66	50
67	80
68	409
69	289
70	199
71	969
72	199
73	6619
74	349
75	70
76	9999
77	319
78	90
79	30
80	30
81	40
82	199
83	489
84	949
85	2559
86	369
87	169
88	279
89	1749
90	80
91	179
92	20
93	20
94	20
95	509
96	70
97	60
98	20
99	819
100	219
101	569
102	239
103	129
104	20
105	80
106	10
107	339
108	20
109	20
110	30
111	50
112	709
113	139
114	30
115	20
116	10
117	789
118	119
119	359
120	20
121	20
122	10
123	20
124	10
125	10
126	10
128	40
129	60
130	50
131	30
132	10
133	10
134	10
135	1829
136	90
137	30
139	40
140	20
141	10
142	10
145	10
146	99
147	309
148	20
149	20
150	10
151	10
152	10
153	10
155	10
156	139
157	20
162	10
164	50
165	129
166	10
174	129
175	20
178	10
192	90
193	99
194	10
