Mass Spectrum: 1,1'-Biphenyl, 2,2',3,3',4,4',5,6,6'-nonachloro-
Formula: C12 H Cl9
CAS: 52663-79-3
Molecular weight: 460
Origin: N. Todua, WGM, MMES
m/z	RELATIVE INTENSITY
43	186
44	433
46	248
47	186
48	186
57	186
60	248
61	248
66	186
71	248
72	310
73	310
77	186
78	186
82	186
83	186
84	371
85	310
86	186
90	557
91	248
94	186
95	310
96	310
97	248
106	248
107	619
108	681
109	495
110	248
114	186
115	186
118	310
119	310
120	433
122	248
123	186
125	371
126	433
127	248
128	186
130	310
131	310
132	495
133	248
134	186
136	186
141	248
143	619
144	743
145	495
146	248
147	186
148	186
154	248
155	310
157	310
158	186
159	186
160	929
161	1362
162	1053
163	371
164	186
165	310
166	248
167	310
168	186
179	557
180	805
181	310
182	310
190	248
191	186
193	248
194	186
195	1053
196	2115
197	1930
198	1238
199	557
201	186
202	248
203	186
213	248
214	433
215	495
216	371
217	310
226	186
227	248
228	186
229	248
230	433
231	929
232	1238
233	929
234	557
236	248
237	186
238	186
239	186
240	186
249	248
250	929
251	371
252	805
253	248
254	433
260	186
261	186
262	186
263	186
264	186
272	186
273	248
274	248
275	186
276	186
284	310
285	557
286	310
287	619
288	310
290	186
298	186
308	186
309	248
310	186
320	1806
321	433
322	3044
323	619
324	1868
325	433
326	681
327	248
328	248
332	186
345	186
347	186
353	186
354	433
355	248
356	743
357	310
358	557
359	248
360	310
362	186
390	2301
391	433
392	4901
393	867
394	4901
395	805
396	2673
397	433
398	991
399	248
400	310
427	310
428	248
429	371
430	248
431	248
432	186
459	3044
461	495
462	7822
463	1238
464	9999
465	1424
466	7512
467	1053
468	3725
469	681
470	1114
471	248
472	371
473	186
