Mass Spectrum: Piperidine, 1,1'-([1,1'-biphenyl]-4,4'-diyldicarbonyl)bis-
Formula: C24 H28 N2 O2
CAS: 52882-87-8
Molecular weight: 376
m/z	RELATIVE INTENSITY
41	1500
42	2400
43	2100
44	3100
55	1200
56	3400
57	3400
73	1100
84	9999
85	5199
104	600
152	500
180	1000
263	600
292	2500
293	500
375	3100
376	1800
