Mass Spectrum: 3,5-Dimethoxy-4-hydroxybenzyl alcohol
Formula: C9 H12 O4
CAS: 530-56-3
Molecular weight: 184
Origin: NIST Mass Spectrometry Data Center, 1994
m/z	RELATIVE INTENSITY
12	58
13	105
15	1001
17	75
18	99
26	303
27	1934
28	1197
29	2977
30	399
31	1702
32	128
37	346
38	1219
39	3873
40	654
41	2252
42	784
43	931
44	186
45	458
49	284
50	1442
51	2264
52	1832
53	5121
54	677
55	2098
56	172
57	280
58	76
59	300
61	191
62	455
63	812
64	583
65	2059
66	1070
67	1608
68	681
69	1415
70	244
71	297
74	136
75	138
76	188
77	2121
78	921
79	1273
80	1263
81	4352
82	939
83	534
84	90
85	295
90	155
91	287
92	475
93	1993
94	517
95	3551
96	690
97	875
98	395
99	124
104	75
105	364
106	1599
107	737
108	889
109	5025
110	1024
111	602
112	221
113	392
119	149
120	362
121	629
122	957
123	5176
124	817
125	965
126	1246
127	524
133	471
134	455
135	329
136	475
137	1070
138	455
139	502
140	1035
141	1587
142	98
147	202
148	525
149	175
150	104
151	1133
152	648
153	1304
154	218
155	1788
156	195
165	305
166	493
167	3580
168	510
169	763
181	502
182	677
184	9999
185	1170
186	164
