Mass Spectrum: Hydrazine, 1,1-diphenyl-
Formula: C12 H12 N2
CAS: 530-50-7
Molecular weight: 184
Origin: Japan AIST/NIMC Database- Spectrum MS-NW-4891
m/z	RELATIVE INTENSITY
16	30
17	50
18	109
26	30
27	219
28	209
29	299
30	10
32	10
37	50
38	149
39	719
40	70
41	60
42	10
43	10
44	20
49	20
50	419
51	1859
52	259
53	109
54	30
55	10
57	20
58	40
61	30
62	80
63	289
64	229
65	599
66	389
67	30
69	60
70	90
71	80
72	10
73	20
74	119
75	109
76	149
77	3069
78	469
79	249
80	169
81	159
82	50
83	819
84	179
85	10
86	10
87	20
88	20
89	99
90	80
91	229
92	259
93	699
94	60
101	40
102	60
103	50
104	99
105	119
106	40
107	669
108	50
113	30
114	40
115	369
116	99
117	60
118	30
119	30
126	30
127	70
128	179
129	70
130	50
138	20
139	319
140	249
141	279
142	109
143	60
144	10
150	10
151	30
152	80
153	109
154	129
155	80
156	80
157	50
158	10
164	20
165	40
166	909
167	6199
168	7329
169	4359
170	559
171	40
179	10
180	30
181	80
182	119
183	339
184	9999
185	1299
186	99
