Mass Spectrum: Butane, 1-bromo-2-methyl-, (S)-
Formula: C5 H11 Br
CAS: 534-00-9
Molecular weight: 150
Origin: Chuck Anderson, Aldrich Chemical Co.
m/z	RELATIVE INTENSITY
13	1
14	9
15	92
16	3
25	10
26	256
27	2021
28	358
29	3398
30	75
31	8
32	6
33	2
36	5
37	76
38	222
39	1991
40	285
41	5233
42	1494
43	4179
44	141
45	2
49	18
50	114
51	154
52	51
53	332
54	67
55	2460
56	722
57	2968
58	128
59	2
61	8
62	13
63	14
64	2
65	16
66	5
67	31
68	5
69	219
70	329
71	9999
72	519
73	14
79	31
80	21
81	36
82	21
83	4
91	7
92	8
93	168
94	13
95	155
96	5
104	3
105	20
106	10
107	109
108	8
109	88
110	2
117	6
119	18
120	27
121	612
122	45
123	602
124	19
135	26
136	1
137	25
149	4
150	268
151	17
152	251
153	13
