Mass Spectrum: Benzenemethanamine, N-(4-methylphenyl)-
Formula: C14 H15 N
CAS: 5405-15-2
Molecular weight: 197
Origin: Chemical Concepts
m/z	RELATIVE INTENSITY
26	82
27	466
28	355
29	88
30	46
37	36
38	176
39	1405
40	145
41	472
42	78
43	67
44	13
45	40
49	21
50	452
51	1197
52	571
53	323
54	69
55	35
56	20
57	44
61	41
62	181
63	693
64	252
65	2470
66	182
67	29
69	22
70	21
71	30
73	41
74	97
75	152
76	173
77	1462
78	661
79	748
80	85
82	13
83	16
84	66
85	17
86	35
87	39
88	48
89	502
90	349
91	9999
92	1049
93	81
96	12
97	31
98	18
99	32
100	15
101	18
102	47
103	45
104	259
105	142
106	838
107	121
115	71
116	66
117	58
118	414
119	213
120	1844
121	184
122	12
126	15
127	29
128	37
129	22
131	12
132	10
136	32
139	35
140	17
141	43
142	20
152	67
153	40
154	43
155	23
162	13
163	16
164	16
165	84
166	27
167	46
168	38
169	12
176	13
177	17
178	60
179	88
180	224
181	67
182	85
183	15
191	11
192	22
193	31
194	178
195	287
196	1572
197	4648
198	806
199	62
