Mass Spectrum: Benzene, 1,2,5-trichloro-3-methoxy-
Formula: C7 H5 Cl3 O
CAS: 54135-81-8
Molecular weight: 210
Origin: SERL
m/z	RELATIVE INTENSITY
35	500
36	1400
37	1800
38	1200
43	100
47	300
48	600
49	900
50	700
51	400
53	100
60	700
61	2600
62	3100
63	300
65	100
71	300
72	900
73	1800
74	2500
75	1200
77	200
83	800
84	900
85	700
86	200
87	300
95	200
96	1000
97	4500
98	500
99	1400
105	100
106	300
107	1600
108	800
109	2400
110	500
111	1700
112	400
113	400
119	100
131	300
132	600
133	200
134	400
143	500
144	400
145	1200
146	700
147	1300
148	300
149	500
160	800
162	500
166	100
167	7400
168	500
169	7100
170	400
171	2200
173	300
175	600
177	300
179	300
180	2400
181	800
182	2300
183	500
184	700
185	100
195	1400
197	1400
199	400
210	9999
211	700
212	8600
213	700
214	2600
215	200
216	300
