Mass Spectrum: m-Toluic acid, pentyl ester
Formula: C13 H18 O2
CAS: 5448-60-2
Molecular weight: 206
Origin: Zaikin V.G., TIPS RAS, Moscow, Russia
m/z	RELATIVE INTENSITY
26	160
27	841
28	30
29	1011
30	30
31	30
36	120
38	120
39	1101
40	150
41	1421
42	1181
43	751
44	140
45	50
50	150
51	290
52	90
53	120
54	40
55	931
56	110
57	100
62	90
63	420
64	140
65	1792
66	110
67	50
68	60
69	270
70	1011
71	80
75	30
76	30
77	220
78	40
79	70
82	30
83	80
84	40
89	530
90	420
91	5905
92	811
93	631
94	40
97	50
105	110
107	30
118	140
119	9999
120	881
121	70
134	30
135	140
136	8147
137	4974
138	400
139	30
149	160
150	40
177	40
206	370
207	42
