Mass Spectrum: 2,2,5,5-Tetramethyltetrahydro-3-ketofuran
Formula: C8 H14 O2
CAS: 5455-94-7
Molecular weight: 142
Origin: Chuck Anderson, Aldrich Chemical Co.
m/z	RELATIVE INTENSITY
14	27
15	274
16	6
26	51
27	466
28	365
29	478
30	14
31	337
32	3
37	26
38	88
39	1356
40	461
41	4572
42	632
43	4420
44	108
45	24
49	22
50	105
51	61
52	25
53	160
54	67
55	716
56	9999
57	518
58	112
59	8047
60	259
61	25
62	7
63	7
65	12
66	11
67	32
68	2
69	1470
70	81
71	10
72	2
77	3
79	8
81	14
82	2
83	47
84	146
85	77
86	7
87	1
99	89
100	5
109	37
110	2
114	1455
115	96
116	5
125	9
127	123
128	9
142	106
143	14
