Mass Spectrum: 3-Decanone, 2-methyl-
Formula: C11 H22 O
CAS: 5463-82-1
Molecular weight: 170
Origin: NIST Mass Spectrometry Data Center, 1990.
m/z	RELATIVE INTENSITY
15	101
27	2024
28	870
29	1589
39	1197
41	4386
42	1331
43	6954
44	252
53	236
55	1517
57	9999
58	498
59	115
67	553
68	163
69	250
70	115
71	2849
72	136
82	84
83	204
84	106
85	84
86	2131
87	323
98	133
99	230
109	607
127	4422
128	389
170	765
171	117
