Mass Spectrum: 2-Pentynoic acid ethyl ester
Formula: C7 H10 O2
CAS: 55314-57-3
Molecular weight: 126
Origin: NIST Mass Spectrometry Data Center
m/z	RELATIVE INTENSITY
12	100
14	90
15	170
17	130
18	100
25	90
26	470
27	2052
28	260
29	1141
30	220
37	390
38	641
39	1141
41	110
42	180
43	290
45	150
49	250
50	801
51	1051
52	601
53	5055
54	991
55	330
65	110
66	571
67	841
68	110
69	280
77	120
79	611
81	9999
82	911
83	621
93	120
97	340
98	90
99	170
108	130
111	1271
112	80
125	160
