Mass Spectrum: 1-Cyclohexyl-2-methyl-2-propanol
Formula: C10 H20 O
CAS: 5531-30-6
Molecular weight: 156
Origin: NIST Mass Spectrometry Data Center, 1990.
m/z	RELATIVE INTENSITY
14	5
15	54
27	413
28	258
29	455
30	5
31	435
32	12
39	804
40	185
41	1691
42	210
43	1129
44	46
45	63
50	34
51	107
52	71
53	405
54	486
55	2491
56	389
57	860
58	34
59	9999
60	332
61	31
63	37
65	137
67	1795
68	196
69	264
70	78
71	72
77	160
78	40
79	271
80	571
81	916
82	1261
83	1172
84	76
91	62
93	59
95	396
96	228
97	182
98	37
109	37
123	478
124	45
138	295
139	48
141	358
142	41
