Mass Spectrum: Benzene, 1-(ethenylsulfonyl)-4-methyl-
Formula: C9 H10 O2 S
CAS: 5535-52-4
Molecular weight: 182
m/z	RELATIVE INTENSITY
39	1200
51	500
65	2300
77	800
79	700
89	800
91	7999
107	2900
111	100
118	500
139	9999
155	800
156	300
182	6399
