Mass Spectrum: Thiophene, 2-methyl-
Formula: C5 H6 S
CAS: 554-14-3
Molecular weight: 98
Origin: DC-24-1
m/z	RELATIVE INTENSITY
15	100
26	200
27	701
28	100
37	400
38	500
39	1301
40	100
44	100
45	2202
46	100
47	200
48	100
49	300
50	100
51	200
52	100
53	701
54	100
57	300
58	601
59	500
61	100
62	100
63	100
65	100
68	100
69	500
70	200
71	300
72	100
81	100
82	100
97	9999
98	5605
99	701
100	200
