Mass Spectrum: N-Phenylmaleamic acid
Formula: C10 H9 N O3
CAS: 555-59-9
Molecular weight: 191
Origin: NIST Mass Spectrometry Data Center, 1994
m/z	RELATIVE INTENSITY
12	108
13	125
24	92
25	475
26	4508
27	660
29	125
36	61
37	821
38	1370
39	1716
40	244
41	562
42	114
44	102
49	125
50	980
51	1311
52	882
53	1154
54	4644
55	225
59	167
61	287
62	537
63	1578
64	2377
65	999
66	660
67	96
73	215
74	324
75	222
76	349
77	1311
78	189
79	96
80	374
82	267
87	76
88	88
89	430
90	1232
91	2209
92	460
93	1494
94	290
98	139
103	2571
104	980
105	96
116	333
117	2339
118	324
119	983
120	94
128	646
129	3503
130	453
131	171
132	97
144	612
145	773
146	91
173	9999
174	1148
175	102
