Mass Spectrum: Rotoxamine
Formula: C16 H19 Cl N2 O
CAS: 5560-77-0
Molecular weight: 290
Origin: MI-0079
m/z	RELATIVE INTENSITY
42	791
43	340
44	390
45	490
56	340
57	340
58	9999
59	490
70	190
71	7397
72	991
73	390
74	90
75	190
138	40
139	240
140	140
141	40
164	40
165	140
166	340
167	1091
168	290
201	340
202	641
203	510
204	290
205	190
218	190
219	140
220	90
221	40
