Mass Spectrum: 11,14,17-Eicosatrienoic acid, methyl ester
Formula: C21 H36 O2
CAS: 55682-88-7
Molecular weight: 320
Origin: William W. Christie, Mylnefield Lipid Analysis, Invergowrie, Dundee, Scotland, UK
m/z	RELATIVE INTENSITY
51	100
52	100
53	701
54	1001
55	4494
56	200
57	601
59	901
65	500
66	801
67	6196
68	1391
69	2092
71	200
73	200
74	801
75	100
77	1291
78	1191
79	9999
80	4094
81	4294
82	1191
83	901
85	200
87	1091
88	100
89	100
91	1892
92	500
93	4694
94	2692
95	6596
96	1091
97	701
99	100
101	200
105	701
106	100
107	2092
108	4894
109	1992
110	300
111	200
113	100
115	100
117	200
119	300
120	200
121	2192
122	1391
123	701
124	100
125	200
129	200
131	200
133	100
134	100
135	1892
136	1091
137	500
138	100
139	100
141	100
143	300
145	200
147	100
149	1091
150	500
151	200
152	100
157	100
159	100
161	100
163	400
164	300
165	100
171	200
173	100
177	200
178	100
191	100
192	100
195	100
201	200
206	100
219	100
238	100
245	100
251	100
252	100
259	100
263	100
264	400
265	100
266	100
271	100
277	100
289	500
290	100
291	300
292	100
320	801
321	200
