Mass Spectrum: 2-Cyclopenten-1-one, 3,4,5-trimethyl-
Formula: C8 H12 O
CAS: 55683-21-1
Molecular weight: 124
Origin: G.S. KING, CHEM. PATHOL. DEP., QUEEN CHARLOTTE'S HOSP., LONDON
m/z	RELATIVE INTENSITY
40	240
41	520
42	120
43	240
44	240
53	320
54	240
55	240
56	440
57	120
67	520
79	1240
80	120
81	3640
82	520
83	320
84	320
85	240
86	120
91	240
93	120
95	240
96	120
97	120
109	9999
110	840
111	120
124	2440
125	240
