Mass Spectrum: Ethanedial, dioxime
Formula: C2 H4 N2 O2
CAS: 557-30-2
Molecular weight: 88
Origin: NIST Mass Spectrometry Data Center, 1994
m/z	RELATIVE INTENSITY
12	474
13	448
14	411
15	411
16	2610
17	1732
18	754
19	365
24	345
25	553
26	1416
27	5023
28	8346
29	845
30	5221
32	214
33	391
38	1281
39	1390
40	5614
41	1298
42	754
43	6842
44	9999
45	370
52	682
53	1849
54	259
58	792
69	142
70	3158
71	2028
88	3202
89	99
