Mass Spectrum: Allyl ethyl ether
Formula: C5 H10 O
CAS: 557-31-3
Molecular weight: 86
Origin: Japan AIST/NIMC Database- Spectrum MS-IW-1537
m/z	RELATIVE INTENSITY
13	10
14	60
15	319
16	10
18	20
25	30
26	419
27	2219
28	1589
29	5029
30	1679
31	2909
32	30
35	20
36	10
37	99
38	279
39	2689
40	849
41	8419
42	739
43	1069
44	179
45	919
46	119
47	70
49	10
50	60
51	80
52	90
53	40
54	40
55	589
56	139
57	9099
58	9999
59	869
60	70
61	20
63	10
67	20
69	30
70	20
71	169
72	40
81	10
82	10
83	20
85	139
86	1119
87	99
88	20
