Mass Spectrum: Carbon tetrabromide
Formula: C Br4
CAS: 558-13-4
Molecular weight: 328
Origin: Japan AIST/NIMC Database- Spectrum MS-NW-2301
m/z	RELATIVE INTENSITY
12	149
79	1069
81	1049
91	1329
92	20
93	1319
94	20
170	1159
171	50
172	2279
173	99
174	1099
175	50
249	3469
250	40
251	9999
252	119
253	9769
254	119
255	3199
256	40
330	10
332	20
334	10
