Mass Spectrum: Diethylstilbestrol
Formula: C18 H20 O2
CAS: 56-53-1
Molecular weight: 268
Origin: Japan AIST/NIMC Database- Spectrum MS-NW-2346
m/z	RELATIVE INTENSITY
15	30
16	10
17	49
18	199
26	20
27	419
28	219
29	259
31	20
32	60
38	50
39	669
40	99
41	329
42	20
43	169
44	20
50	119
51	459
52	99
53	229
54	10
55	579
56	20
57	40
62	90
63	339
64	119
65	639
66	149
67	60
68	20
69	50
70	10
71	30
74	70
75	149
76	169
77	1239
78	199
79	389
80	30
81	70
82	90
83	40
84	40
85	10
86	40
87	70
88	109
89	329
90	80
91	989
92	109
93	119
94	359
95	129
96	30
97	99
98	50
99	40
100	20
101	169
102	149
103	489
104	109
105	579
106	80
107	6669
108	509
109	80
110	50
111	40
112	189
113	50
114	40
115	799
116	259
117	349
118	189
119	679
120	149
121	2059
122	169
123	20
125	20
126	80
127	589
128	289
129	159
130	90
131	779
132	249
133	1559
134	709
135	659
136	70
137	20
138	10
139	119
140	50
141	329
142	90
143	60
144	579
145	5549
146	829
147	369
148	50
149	10
150	30
151	119
152	389
153	199
154	50
155	109
156	30
157	169
158	159
159	2069
160	289
161	209
162	40
163	70
164	50
165	499
166	129
167	99
168	90
169	70
170	40
173	149
174	299
175	70
176	90
177	149
178	179
179	109
180	40
181	529
182	189
183	169
184	50
185	40
186	30
189	99
190	60
191	90
192	40
193	99
194	219
195	289
196	129
197	189
198	50
199	139
200	30
202	70
203	40
204	20
205	70
206	50
207	209
208	80
209	139
210	829
211	549
212	99
213	70
218	60
219	60
220	40
221	80
222	50
223	569
224	1269
225	309
226	50
227	10
231	20
232	10
233	20
234	20
235	40
236	60
237	239
238	239
239	5629
240	999
241	109
251	90
252	60
253	1279
254	249
255	30
264	30
265	20
266	109
267	239
268	9999
269	1909
270	219
271	20
