Mass Spectrum: Cystine
Formula: C6 H12 N2 O4 S2
CAS: 56-89-3
Molecular weight: 240
Origin: Japan AIST/NIMC Database- Spectrum MS-NW-8324
m/z	RELATIVE INTENSITY
12	90
13	10
14	70
15	489
16	1769
17	799
18	889
19	20
22	80
25	20
26	219
27	679
28	949
29	329
30	499
31	20
32	559
33	2329
34	6139
35	189
36	319
37	30
38	109
39	299
40	299
41	799
42	2209
43	1279
44	9999
45	759
46	259
47	219
48	50
49	10
50	30
51	70
52	99
53	139
54	379
55	339
56	319
57	289
58	499
59	1009
60	519
61	209
62	80
63	30
64	639
65	70
66	129
67	99
68	389
69	519
70	189
71	179
72	129
73	149
74	519
75	439
76	599
77	60
78	70
79	30
80	60
81	40
82	60
83	90
84	99
85	189
86	409
87	159
88	149
89	30
90	30
91	20
92	40
93	90
94	60
95	70
96	90
97	99
98	90
99	219
100	239
101	199
102	149
103	119
104	40
105	30
106	40
107	30
108	40
109	60
110	70
111	109
112	189
113	99
114	99
115	40
116	30
117	30
118	40
119	20
120	20
121	40
122	30
123	40
124	70
125	80
126	139
127	119
128	90
129	70
130	119
131	60
132	70
133	30
134	20
135	20
136	30
137	30
138	60
139	50
140	80
141	40
142	70
143	30
144	30
145	40
146	20
147	30
148	20
149	20
150	20
151	40
152	30
153	40
154	30
155	40
156	30
157	40
158	20
159	20
160	40
161	10
162	20
163	20
164	20
165	20
166	20
167	20
168	30
169	30
170	20
171	20
172	20
173	10
174	10
175	10
176	10
177	20
178	10
179	20
180	20
181	30
182	20
183	30
184	10
185	20
186	10
187	10
188	10
189	10
190	10
191	10
192	50
193	10
194	20
195	20
196	20
197	10
198	10
199	10
200	10
207	10
208	10
209	10
210	10
211	10
212	10
213	10
224	10
240	10
