Mass Spectrum: 1-Propene, 3,3-dichloro-
Formula: C3 H4 Cl2
CAS: 563-57-5
Molecular weight: 110
Origin: J.VOTH, UNIV. OF CALIFORNIA, DAVIS, CALIFORNIA, 95616, USA
m/z	RELATIVE INTENSITY
2	27
12	207
13	207
14	239
15	75
24	73
25	219
26	572
27	869
28	33
29	38
35	610
36	444
37	1326
38	410
39	5367
40	334
41	49
43	7
47	266
48	239
49	1763
50	95
51	532
52	6
54	7
59	11
60	57
61	86
62	26
63	26
70	6
71	24
72	70
73	292
74	98
75	9999
76	375
77	3184
78	114
79	17
82	37
83	314
84	29
85	197
86	7
87	31
95	5
97	6
107	5
109	81
110	261
111	58
112	163
113	14
114	26
