Mass Spectrum: Pregnane-3,20-dione, 11-hydroxy-, (5.alpha.,11.alpha.)-
Formula: C21 H32 O3
CAS: 565-96-8
Molecular weight: 332
m/z	RELATIVE INTENSITY
41	3105
43	9999
53	789
55	3526
57	395
67	2105
68	211
69	1526
70	158
71	2105
77	974
78	184
79	2500
80	526
81	3684
82	526
83	684
84	1210
85	1474
91	1684
92	184
93	2342
94	868
95	2763
96	263
97	1053
98	158
105	1684
106	474
107	2473
108	1500
109	1421
110	474
111	500
117	158
118	53
119	1184
120	921
121	1579
122	1816
123	1158
124	658
125	395
131	684
132	237
133	1053
134	579
135	1053
136	263
137	579
138	79
157	421
158	105
159	868
160	184
161	1000
162	500
163	789
164	105
169	105
170	53
171	500
172	316
173	632
174	211
175	500
176	474
177	368
178	53
185	184
186	105
187	395
188	132
189	368
190	263
191	289
192	211
193	79
197	79
199	316
200	53
201	263
203	316
204	79
205	158
206	79
207	79
211	500
213	316
215	184
216	105
217	684
218	53
220	79
225	105
226	79
227	105
228	763
229	1816
230	605
231	105
239	53
241	237
242	79
243	158
244	1053
245	184
253	263
256	553
257	553
258	26
259	26
262	474
263	53
271	2526
272	684
281	474
286	53
287	79
296	1158
297	368
299	1342
300	158
314	6868
315	1474
332	1368
333	158
