Mass Spectrum: Allylidenecyclohexane
Formula: C9 H14
CAS: 5664-10-8
Molecular weight: 122
Origin: NIST Mass Spectrometry Data Center, 1990.
m/z	RELATIVE INTENSITY
15	94
26	156
27	1094
28	426
29	273
38	280
39	2679
40	458
41	1982
42	127
50	467
51	1091
52	570
53	1982
54	539
55	602
58	61
62	177
63	438
65	1298
66	692
67	1532
68	543
74	88
77	2738
78	1033
79	8876
80	2572
81	9999
82	624
89	101
91	1929
92	337
93	2099
94	791
95	116
103	94
105	227
107	1685
108	147
115	93
117	86
122	2701
123	269
