Mass Spectrum: Chlorotrianisene
Formula: C23 H21 Cl O3
CAS: 569-57-3
Molecular weight: 380
Origin: NIST Mass Spectrometry Data Center
m/z	RELATIVE INTENSITY
15	140
27	20
29	20
36	10
38	10
39	70
41	10
43	10
45	20
50	40
51	80
52	10
53	30
55	30
62	30
63	160
64	100
65	50
73	10
74	40
75	100
76	70
77	130
78	50
79	40
81	40
86	30
87	90
88	130
89	90
90	10
91	40
92	90
94	370
98	20
99	110
100	180
101	390
102	90
103	20
107	300
108	310
109	50
110	20
111	40
112	140
113	791
114	350
115	120
116	50
117	40
120	390
121	200
122	210
124	20
125	90
126	280
128	310
129	270
131	40
132	30
133	30
135	320
136	240
137	80
138	70
139	210
140	70
141	150
142	160
143	330
145	50
146	10
147	10
149	370
150	320
151	510
152	701
153	130
154	40
155	50
156	180
157	420
159	10
160	10
161	30
162	60
163	290
164	210
165	360
166	100
167	40
168	40
169	40
170	10
171	150
172	270
174	60
175	50
176	140
177	50
178	30
179	30
180	240
181	50
182	20
183	10
185	10
186	70
187	180
188	130
189	571
190	941
191	330
193	20
194	50
195	571
196	80
197	10
198	30
199	290
200	210
201	110
202	260
203	80
204	20
205	30
206	10
207	20
208	80
209	30
210	30
211	50
212	30
213	390
214	250
215	941
216	370
217	100
218	60
219	20
221	10
222	30
223	1251
224	280
225	150
226	671
227	581
228	420
229	240
230	50
231	60
232	50
233	20
235	10
236	40
237	70
238	1211
239	561
240	170
241	70
242	110
243	340
244	250
245	100
246	20
247	10
248	10
249	10
250	20
251	30
252	60
253	40
254	40
255	360
256	240
257	140
258	220
259	230
260	50
261	20
262	10
263	10
265	10
266	30
267	90
268	140
269	140
270	130
271	591
272	220
273	60
274	20
275	40
276	10
279	10
281	50
282	150
283	180
284	130
285	90
286	110
287	320
288	80
289	10
297	50
298	260
299	480
300	150
301	420
302	280
303	50
312	20
313	100
314	661
315	410
316	80
317	10
328	10
329	200
330	631
331	160
332	20
337	20
343	40
344	150
345	2452
346	711
347	100
348	10
349	10
350	10
365	350
366	80
367	130
368	20
378	10
380	9999
381	2482
382	3503
383	831
384	100
385	10
