Mass Spectrum: 2,3-Butanedione, monooxime
Formula: C4 H7 N O2
CAS: 57-71-6
Molecular weight: 101
Origin: NIST Mass Spectrometry Data Center, 1998.
m/z	RELATIVE INTENSITY
13	10
14	60
15	370
16	10
17	10
18	10
25	20
26	110
27	190
28	200
29	90
30	130
31	200
36	10
37	40
38	120
39	210
40	460
41	540
42	1700
43	9999
44	280
45	40
49	20
50	60
51	80
52	70
53	90
54	120
55	80
56	30
57	40
58	720
59	20
60	30
69	50
70	10
84	60
85	10
86	70
101	1740
102	90
103	10
