Mass Spectrum: Trichloroacetic acid 3-methylbutyl ester
Formula: C7 H11 Cl3 O2
CAS: 57392-55-9
Molecular weight: 232
Origin: V.Zaikin,Topchiev Inst.Petrochem.Synth.,Moscow
m/z	RELATIVE INTENSITY
25	20
26	140
27	961
28	180
29	1661
30	40
31	60
35	100
36	561
37	30
38	180
39	861
40	170
41	2923
42	1511
43	9999
44	100
45	50
47	210
48	50
49	90
50	70
51	110
52	130
53	260
54	130
55	5665
56	611
57	3213
58	150
59	30
61	20
62	10
63	520
64	20
65	160
66	10
67	70
68	50
69	1341
70	4534
71	4174
72	240
73	20
75	30
76	70
77	20
78	30
79	200
80	30
81	10
82	741
83	210
84	460
85	130
86	80
87	40
89	10
91	20
93	20
96	10
99	30
101	20
110	861
111	60
112	561
113	40
114	100
115	10
117	1772
118	20
119	1712
120	20
121	540
123	60
127	160
128	340
129	120
130	220
131	30
132	40
141	10
142	30
143	10
144	10
145	50
146	30
147	60
148	20
149	30
154	30
155	20
156	30
157	20
163	110
165	100
167	40
175	10
176	90
177	20
178	90
179	10
180	30
189	160
190	180
191	170
192	180
193	60
194	60
197	40
199	30
203	20
205	30
207	10
