Mass Spectrum: Methanone, diphenyl-, phenylhydrazone
Formula: C19 H16 N2
CAS: 574-61-8
Molecular weight: 272
m/z	RELATIVE INTENSITY
50	342
51	1952
52	308
64	68
65	1027
66	103
76	308
77	7568
78	788
91	1027
92	822
93	685
103	342
104	651
136	411
164	171
165	1062
166	274
167	445
168	308
180	7533
181	1370
194	342
195	445
196	68
270	240
271	1710
272	9999
273	2160
274	240
