Mass Spectrum: Hexane, 1-ethoxy-
Formula: C8 H18 O
CAS: 5756-43-4
Molecular weight: 130
m/z	RELATIVE INTENSITY
26	110
27	831
28	611
29	3023
31	8227
39	611
41	2432
42	1111
43	3413
44	240
45	410
47	2172
55	1431
56	4464
57	651
59	9999
60	300
69	871
70	170
83	220
84	1331
85	851
129	20
130	20
