Mass Spectrum: 2-Phenyl-3-(2-furyl)-propenal
Formula: C13 H10 O2
CAS: 57568-60-2
Molecular weight: 198
Origin: NIST Mass Spectrometry Data Center
m/z	RELATIVE INTENSITY
12	30
13	30
14	30
26	180
27	581
29	1932
30	40
37	180
38	581
39	2422
40	260
41	120
42	70
44	40
50	1111
51	1872
52	390
53	180
55	651
56	40
57	400
61	270
62	991
63	2722
64	500
65	831
66	80
68	1331
69	220
70	380
71	530
72	50
74	761
75	891
76	831
77	941
78	190
79	50
81	611
82	40
84	170
85	220
86	540
87	731
88	490
89	1581
90	170
91	510
92	340
97	30
98	270
99	340
100	70
102	3533
103	410
104	30
105	270
106	20
109	50
110	130
111	100
113	721
115	8798
116	1161
117	90
118	30
120	90
121	30
126	190
127	170
128	210
129	120
130	20
131	20
137	140
139	2532
141	9999
142	3533
143	370
144	300
145	30
150	50
151	120
152	270
153	300
154	50
155	200
156	40
157	20
169	4524
170	3974
171	500
172	40
180	30
181	110
195	30
198	7727
199	1071
200	110
