Mass Spectrum: Benzoic acid, 4-bromo-, ethyl ester
Formula: C9 H9 Br O2
CAS: 5798-75-4
Molecular weight: 228
Origin: Japan AIST/NIMC Database- Spectrum MS-IW-4039
m/z	RELATIVE INTENSITY
15	30
26	50
27	319
28	99
29	569
30	20
37	30
38	149
39	80
43	50
44	10
45	519
46	10
49	50
50	1469
51	339
52	60
53	50
61	10
62	20
63	50
64	20
65	229
66	10
73	90
74	679
75	2259
76	2309
77	389
78	40
79	10
80	30
81	10
82	30
89	10
90	20
91	30
92	20
93	40
103	109
104	359
105	169
106	10
107	20
117	10
119	10
121	20
122	10
128	10
129	70
130	20
131	90
132	10
143	20
145	20
149	1149
150	119
151	10
153	10
154	50
155	2879
156	269
157	2819
158	209
159	10
167	10
169	10
171	20
172	20
174	20
182	20
183	9999
184	1149
185	9739
186	1099
187	80
199	10
200	4319
201	349
202	4239
203	339
204	30
209	10
210	30
211	20
212	30
213	129
214	10
215	109
216	10
227	109
228	2269
229	339
230	2219
231	219
232	20
