Mass Spectrum: Papaverine
Formula: C20 H21 N O4
CAS: 58-74-2
Molecular weight: 339
Origin: NIST Mass Spectrometry Data Center, 1998.
m/z	RELATIVE INTENSITY
15	220
26	10
27	30
29	70
31	60
38	30
39	190
40	10
41	20
43	30
45	40
50	170
51	430
52	100
53	100
54	10
55	80
56	10
57	10
59	10
61	10
62	110
63	330
64	130
65	310
66	60
67	20
68	10
69	110
70	130
74	90
75	310
76	390
77	540
78	320
79	230
80	70
82	220
83	340
85	10
86	50
87	130
88	240
89	690
90	430
91	230
92	80
93	40
94	10
95	680
97	160
99	60
100	80
101	220
102	620
103	470
104	40
105	340
106	330
107	540
108	190
110	280
111	290
113	140
114	270
115	250
116	230
117	300
118	410
119	260
121	20
122	20
123	210
124	20
125	380
126	20
127	390
128	170
129	80
130	230
131	210
132	640
135	150
136	40
137	80
138	20
139	550
140	630
142	140
143	150
144	140
145	80
146	540
149	30
150	140
151	870
152	380
153	300
154	2090
156	80
157	110
158	100
159	70
160	40
162	140
163	170
164	190
165	250
166	450
167	500
168	110
169	810
171	110
172	130
173	50
174	40
175	40
176	90
177	160
178	630
179	400
180	370
181	150
182	120
183	170
184	110
185	10
186	40
187	40
188	150
189	110
190	310
191	690
192	380
193	160
194	430
195	380
196	140
197	30
198	20
200	10
201	20
202	250
203	180
204	360
205	130
206	290
207	570
208	440
209	370
210	440
211	110
212	60
214	20
215	30
216	50
217	70
218	80
219	230
220	630
221	350
222	400
223	300
224	120
225	20
226	20
227	110
228	20
230	10
231	50
232	140
233	210
234	340
235	310
236	530
237	310
238	410
239	80
240	80
241	10
242	10
244	10
245	20
246	70
247	110
248	380
249	330
250	590
251	180
252	340
253	410
254	90
255	10
260	40
261	90
262	310
263	290
264	770
265	410
266	760
267	140
268	20
274	10
275	40
276	140
277	260
278	530
279	240
280	890
281	440
282	70
290	70
291	90
292	1050
293	1370
294	800
295	160
296	340
297	60
305	20
306	190
307	420
308	2460
309	690
310	190
311	30
320	10
321	10
322	1080
323	410
324	9069
325	1880
326	260
327	20
336	10
338	9999
339	7619
340	1500
341	180
342	20
