Mass Spectrum: 4-Acetylbenzoic acid
Formula: C9 H8 O3
CAS: 586-89-0
Molecular weight: 164
Origin: NIST Mass Spectrometry Data Center
m/z	RELATIVE INTENSITY
17	50
18	90
29	150
38	240
39	631
42	390
43	1511
45	230
50	951
51	681
52	180
53	190
63	290
65	2332
66	230
74	550
75	601
76	751
77	360
91	320
93	360
99	260
103	190
104	470
105	180
119	180
120	180
121	2562
122	250
147	270
149	9999
150	931
164	1611
165	180
