Mass Spectrum: 1H-1,2,4-Triazol-5-amine, 1-ethyl-
Formula: C4 H8 N4
CAS: 58661-94-2
Molecular weight: 112
Origin: ORMSBG,10(11)946(1975); R.G.COOKS
m/z	RELATIVE INTENSITY
26	1000
27	8500
28	6500
29	2000
40	800
41	1400
42	2700
43	3500
55	6500
57	2500
69	900
70	3700
84	9999
85	300
97	1800
112	7500
113	500
