Mass Spectrum: 1H-1,2,4-Triazol-5-amine, 1-propyl-
Formula: C5 H10 N4
CAS: 58661-96-4
Molecular weight: 126
Origin: ORMSBG,10(11)946(1975); R.G.COOKS
m/z	RELATIVE INTENSITY
41	850
42	500
43	2060
55	2620
56	350
57	2060
70	2550
71	1350
84	9999
85	570
97	4960
98	2270
126	3970
127	570
