Mass Spectrum: Methyl 4-tert-butyl-dithiabenzoate
Formula: C12 H16 S2
CAS: 58863-42-6
Molecular weight: 224
Origin: ASES Database, Dalian Institute, P.R. China
m/z	RELATIVE INTENSITY
39	400
41	410
45	400
67	380
69	400
76	300
77	500
91	500
115	390
120	290
121	390
134	290
145	300
147	2272
148	290
161	890
162	3102
163	400
177	9999
178	1291
179	490
224	2802
225	400
