Mass Spectrum: 3-Octanol
Formula: C8 H18 O
CAS: 589-98-0
Molecular weight: 130
Origin: NIST Mass Spectrometry Data Center, 1990.
m/z	RELATIVE INTENSITY
14	252
15	182
16	133
18	100
26	264
27	2226
28	273
29	2751
30	100
31	2395
32	69
39	1384
41	4223
42	809
43	1943
44	922
45	381
51	109
53	288
55	6860
56	966
57	1624
58	1364
59	9999
60	354
67	208
69	532
70	555
71	326
72	210
81	81
83	6223
84	540
99	135
101	2434
102	162
112	659
