Mass Spectrum: Phenylephrine
Formula: C9 H13 N O2
CAS: 59-42-7
Molecular weight: 167
Origin: Japan AIST/NIMC Database- Spectrum MS-NW-3889
m/z	RELATIVE INTENSITY
15	60
17	20
18	109
27	50
28	119
29	40
30	119
38	30
39	159
40	30
41	60
42	189
43	80
44	9999
45	299
50	30
51	70
52	20
53	30
55	30
62	20
63	50
64	20
65	119
66	50
67	30
74	10
77	259
78	40
79	20
91	50
93	40
94	60
95	189
96	10
104	20
105	20
106	10
107	50
108	30
119	10
120	50
121	70
122	30
123	60
124	60
133	30
148	70
149	30
167	149
168	20
