Mass Spectrum: Cyclohexene, 4-methyl-
Formula: C7 H12
CAS: 591-47-9
Molecular weight: 96
Origin: Japan AIST/NIMC Database- Spectrum MS-NW-4941
m/z	RELATIVE INTENSITY
15	139
26	159
27	1409
28	219
29	729
30	20
36	129
37	70
38	189
39	2599
40	399
41	1679
42	389
43	60
44	10
45	30
46	30
49	20
50	219
51	469
52	239
53	1449
54	6389
55	3919
56	259
57	20
58	10
61	30
62	60
63	129
64	30
65	379
66	299
67	3349
68	3099
69	209
70	50
71	10
73	10
74	30
75	10
76	10
77	499
78	129
79	1019
80	169
81	9999
82	699
83	30
89	10
91	149
92	50
93	80
94	40
95	679
96	4079
97	349
98	30
