Mass Spectrum: S-Methyl propanethioate
Formula: C4 H8 O S
CAS: 5925-75-7
Molecular weight: 104
Origin: J. MADSEN,DEP. ORG. CHEM.,TECH. UNIV. DENMARK,LYNGBY,DENMARK
m/z	RELATIVE INTENSITY
27	1600
29	9999
45	700
47	1000
48	800
57	7600
75	800
104	1700
