Mass Spectrum: 4-Nonanol
Formula: C9 H20 O
CAS: 5932-79-6
Molecular weight: 144
Origin: NIST Mass Spectrometry Data Center, 1990.
m/z	RELATIVE INTENSITY
15	148
26	169
27	2013
28	178
29	2019
30	109
31	841
39	1399
40	335
41	3465
42	883
43	3009
44	1083
45	437
51	108
53	412
55	9999
56	1188
57	1089
58	247
59	149
67	342
69	658
70	626
71	458
72	656
73	4746
74	217
81	76
83	4823
84	530
97	280
98	90
99	125
100	226
101	1777
102	103
126	640
