Mass Spectrum: Ethane, 1,1,1-trinitro-
Formula: C2 H3 N3 O6
CAS: 595-86-8
Molecular weight: 165
Origin: J.T.LARKINS U.S. DEPT. OF COMMERCE, WASHINGTON, D.C., USA
m/z	RELATIVE INTENSITY
15	70
16	3088
25	105
26	439
27	596
30	158
38	35
39	35
40	35
41	105
42	579
46	9999
73	649
119	1632
