Mass Spectrum: 2-Butanol, 3-methyl-
Formula: C5 H12 O
CAS: 598-75-4
Molecular weight: 88
Origin: Japan AIST/NIMC Database- Spectrum MS-NW-1316
m/z	RELATIVE INTENSITY
14	20
15	169
18	10
26	50
27	689
28	70
29	309
30	10
31	279
32	10
37	10
38	40
39	379
40	50
41	669
42	189
43	819
44	1179
45	9999
46	239
47	40
50	20
51	20
53	50
54	10
55	1099
56	60
57	80
58	20
59	20
69	70
70	50
71	60
72	20
73	979
74	50
87	50
88	30
