Mass Spectrum: 2-Butanamine, 3-methyl-
Formula: C5 H13 N
CAS: 598-74-3
Molecular weight: 87
Origin: CARL DJERASSI DEPT OF CHEM STANFORD UNIV STANFORD CALIF 94305
m/z	RELATIVE INTENSITY
15	100
17	100
18	500
27	300
28	300
29	100
30	200
31	100
41	300
42	400
43	300
44	9999
45	300
55	600
56	200
57	100
58	100
69	100
70	200
71	100
72	400
73	100
84	100
86	100
87	100
