Mass Spectrum: 1,3,5-Trioxepane
Formula: C4 H8 O3
CAS: 5981-06-6
Molecular weight: 104
m/z	RELATIVE INTENSITY
15	941
19	436
27	781
28	335
29	2085
31	1164
43	1290
44	9999
45	3375
61	1262
73	9288
74	443
75	847
103	119
104	652
