Mass Spectrum: Patchouli alcohol
Formula: C15 H26 O
CAS: 5986-55-0
Molecular weight: 222
Origin: G.BRAMMER,UNIVERSITY OF TEXAS
m/z	RELATIVE INTENSITY
25	20
26	30
27	1629
28	460
29	2920
30	70
31	270
32	100
33	10
35	20
36	10
37	20
39	1829
40	530
41	9999
42	1860
43	7760
44	190
45	490
46	10
47	20
48	10
49	20
50	50
51	320
52	180
53	2450
54	560
55	6669
56	780
57	1530
58	140
59	530
60	30
63	80
64	70
65	1080
66	480
67	5330
68	1130
69	4580
70	1210
71	1440
72	170
73	140
74	20
75	80
76	50
77	2300
78	680
79	2890
80	1370
81	6070
82	2660
83	6270
84	2210
85	680
86	250
87	20
88	40
89	70
90	70
91	2270
92	510
93	3150
94	1060
95	4540
96	1150
97	1530
98	6140
99	900
100	80
101	30
102	30
103	180
104	100
105	2450
106	460
107	2630
108	980
109	3259
110	1050
111	2240
112	340
113	90
114	20
115	220
116	80
117	230
118	100
119	1350
120	320
121	2430
122	1210
123	2830
124	1040
125	4059
126	510
127	70
128	80
129	100
130	50
131	140
132	20
133	989
134	230
135	1010
136	580
137	1750
138	5590
139	670
140	140
141	20
142	20
143	70
144	40
145	180
146	60
147	770
148	310
149	690
150	190
151	880
152	220
153	180
154	50
155	20
156	20
158	20
159	50
160	40
161	2560
162	520
163	180
164	380
165	500
166	150
167	150
168	30
170	10
173	80
174	20
175	160
176	90
177	90
178	100
179	1230
180	260
181	50
183	20
187	40
188	20
189	960
190	120
191	50
192	20
193	120
194	70
198	10
202	20
204	320
205	80
206	10
207	2120
208	310
209	40
220	20
221	80
222	8290
223	1470
224	150
225	20
