Mass Spectrum: Benzenamine, 3,3'-sulfonylbis-
Formula: C12 H12 N2 O2 S
CAS: 599-61-1
Molecular weight: 248
Origin: Japan AIST/NIMC Database- Spectrum MS-NW-2761
m/z	RELATIVE INTENSITY
15	20
18	20
26	10
27	70
28	259
29	10
30	20
32	30
37	30
38	149
39	949
40	70
41	219
42	109
43	10
44	30
45	30
48	20
50	60
51	99
52	269
53	159
54	99
55	10
57	10
60	10
61	20
62	90
63	349
64	349
65	3229
66	479
67	50
68	40
69	20
70	10
71	20
74	30
75	40
76	50
77	50
78	109
79	50
80	529
81	70
82	10
83	30
84	10
85	40
89	30
90	70
91	369
92	2909
93	529
94	40
95	20
96	30
97	30
98	10
99	10
100	10
101	10
102	10
103	10
104	10
106	20
107	30
108	329
109	579
110	40
111	10
112	409
113	50
114	30
115	50
116	20
117	50
118	20
122	20
123	30
124	70
125	30
126	10
127	40
128	50
129	40
130	99
131	20
136	10
137	10
138	10
139	109
140	3639
141	309
142	189
143	80
144	20
145	10
149	10
151	10
152	20
153	10
154	80
155	50
156	149
157	50
158	30
159	10
162	20
164	10
165	10
166	449
167	509
168	219
169	99
170	20
171	30
172	10
175	10
181	109
182	529
183	769
184	1469
185	209
186	80
187	20
188	20
189	10
197	20
198	119
199	80
200	50
201	60
202	30
203	40
213	30
214	219
215	60
216	30
229	10
230	30
231	40
232	10
246	10
247	60
248	9999
249	1479
250	579
251	70
