Mass Spectrum: .alpha.-Oxo-furan-2-acetonitrile
Formula: C6 H3 N O2
CAS: 6047-91-2
Molecular weight: 121
Origin: NIST Mass Spectrometry Data Center, 1994
m/z	RELATIVE INTENSITY
12	161
13	103
14	69
16	16
17	31
18	20
24	62
25	181
26	450
27	56
28	399
29	781
34	81
36	300
37	1824
38	2552
39	3611
40	203
41	249
42	127
47	77
48	73
49	196
50	205
51	175
52	44
53	237
54	689
55	26
60	25
61	36
62	60
63	127
64	631
65	234
66	195
67	654
68	32
69	38
75	135
76	85
92	34
93	263
95	9999
96	562
97	61
121	5832
122	421
123	40
