Mass Spectrum: 2-Bromo-4-chloroanisole
Formula: C7 H6 Br Cl O
CAS: 60633-25-2
Molecular weight: 220
Origin: NIST Mass Spectrometry Data Center, 1994
m/z	RELATIVE INTENSITY
12	230
13	570
14	1298
15	3543
16	233
24	83
25	274
26	711
27	323
28	83
29	3902
30	940
31	274
35	540
36	522
37	2792
38	1800
39	469
41	101
42	74
43	109
47	396
48	354
49	1271
50	3010
51	1141
52	260
53	1179
55	95
56	76
60	943
61	3515
62	5468
63	9999
64	631
65	115
71	382
72	1320
73	2529
74	4632
75	5481
76	1014
77	930
78	585
79	943
80	262
81	925
82	188
83	188
84	498
85	370
86	196
87	115
90	76
91	178
92	86
93	142
95	95
97	1065
98	1511
99	450
100	505
104	97
106	98
108	147
109	476
110	985
111	1922
112	630
113	761
114	109
115	105
116	227
117	393
118	246
119	422
126	2143
127	563
128	833
129	509
130	114
131	170
140	90
141	436
142	258
143	276
144	129
151	261
152	90
153	448
154	83
155	292
157	101
170	181
172	247
177	5182
179	6623
180	647
181	1710
182	109
189	222
191	222
205	5893
207	7372
208	601
209	1898
210	149
220	7271
221	561
222	9492
223	737
224	2383
225	185
