Mass Spectrum: 2-Anthracenamine
Formula: C14 H11 N
CAS: 613-13-8
Molecular weight: 193
Origin: Japan AIST/NIMC Database- Spectrum MS-NW-6206
m/z	RELATIVE INTENSITY
26	10
27	50
28	109
29	10
37	20
38	50
39	169
40	10
41	50
42	10
50	149
51	179
52	90
53	20
54	20
55	10
56	10
57	10
61	70
62	189
63	299
64	50
65	70
66	10
67	10
68	20
69	129
70	40
71	10
73	20
74	209
75	179
76	109
77	80
78	30
81	129
82	299
83	129
84	20
85	40
86	149
87	189
88	129
89	139
90	30
91	20
94	20
95	159
96	509
97	99
98	109
99	80
100	50
101	40
102	40
103	10
106	10
109	20
110	50
111	80
112	30
113	119
114	50
115	239
116	30
117	10
122	40
123	30
124	20
125	20
126	80
127	60
128	50
134	10
135	10
136	10
137	80
138	80
139	439
140	119
141	70
142	10
143	10
149	30
150	149
151	119
152	119
153	60
154	30
161	30
162	90
163	609
164	539
165	3489
166	689
167	129
168	10
174	50
175	70
176	399
177	159
178	109
179	30
180	20
188	40
189	30
190	189
191	219
192	339
193	9999
194	1779
195	279
196	30
