Mass Spectrum: 3,9-Dodecadiyne
Formula: C12 H18
CAS: 61827-89-2
Molecular weight: 162
Origin: NIST Mass Spectrometry Data Center
m/z	RELATIVE INTENSITY
11	20
13	20
14	20
15	280
16	30
18	50
20	10
23	10
26	270
27	2823
28	390
29	1221
30	20
32	10
34	20
37	100
38	450
39	6065
40	1331
41	8538
42	390
43	250
44	20
45	10
46	10
48	10
50	681
51	1982
52	1131
53	2572
54	500
55	2702
56	140
57	30
59	10
61	50
62	250
63	801
64	210
65	2532
66	1031
67	4274
68	430
69	330
70	20
74	90
75	80
77	3693
78	961
79	4664
80	611
81	681
82	190
83	10
85	10
86	20
87	20
88	10
89	100
91	7827
92	1011
93	1491
94	210
95	100
96	10
100	10
102	90
103	721
105	9999
106	1141
107	260
108	120
113	10
115	611
116	270
117	1421
118	540
119	3363
120	581
121	160
122	10
127	50
128	130
129	140
130	70
131	460
133	4454
134	961
135	80
139	10
141	20
142	10
143	20
145	80
147	3123
148	370
149	20
159	10
162	130
