Mass Spectrum: p-Anisaldehyde phenylhydrazone
Formula: C14 H14 N2 O
CAS: 622-73-1
Molecular weight: 226
Origin: Chemical Concepts
m/z	RELATIVE INTENSITY
26	30
27	139
28	259
29	90
36	20
37	70
38	309
39	1079
40	129
41	179
42	30
43	90
50	549
51	1189
52	269
53	129
54	60
55	90
56	30
57	109
61	50
62	239
63	1019
64	1199
65	2789
66	1239
67	119
69	40
70	40
71	60
74	90
75	199
76	409
77	2569
78	399
79	179
80	40
83	70
84	30
85	20
88	20
89	229
90	529
91	4389
92	3549
93	3439
94	229
95	20
97	20
102	60
103	139
104	80
105	129
106	109
107	659
108	159
109	40
112	40
113	469
114	20
115	30
118	969
119	429
120	70
121	90
127	40
128	70
129	70
132	40
133	459
134	1159
135	179
149	20
152	50
153	50
154	129
155	99
156	50
165	20
166	60
167	129
168	60
169	40
171	80
181	139
182	399
183	199
184	249
185	30
195	99
197	30
198	30
199	20
209	30
210	159
211	449
212	50
225	1709
226	9999
227	1409
