Mass Spectrum: p-Tolylacetic acid
Formula: C9 H10 O2
CAS: 622-47-9
Molecular weight: 150
Origin: NIST Mass Spectrometry Data Center, 1994
m/z	RELATIVE INTENSITY
15	116
16	1
17	24
18	9
26	197
27	859
29	127
31	19
37	85
38	255
39	1019
40	90
41	96
42	61
43	22
44	19
45	1502
46	27
47	8
50	654
51	1219
52	395
53	347
54	24
55	25
60	18
61	88
62	282
63	589
64	125
65	348
66	66
67	15
73	42
74	205
75	134
76	15
77	2064
78	921
79	1460
80	108
85	23
86	44
87	55
89	204
91	1022
92	78
93	35
98	26
103	1174
105	9999
106	1098
107	133
108	22
119	23
131	13
132	52
133	8
147	8
148	13
150	3518
151	337
152	32
