Mass Spectrum: Benzenehexacarboxylic acid, hexamethyl ester
Formula: C18 H18 O12
CAS: 6237-59-8
Molecular weight: 426
Origin: D.HENNEBERG, MAX-PLANCK INSTITUTE, MULHEIM, WEST GERMANY
m/z	RELATIVE INTENSITY
26	7
27	11
28	408
29	151
30	99
31	92
35	8
36	94
37	5
38	26
39	10
40	4
41	23
43	11
44	195
45	288
46	16
49	4
50	20
51	5
52	10
55	9
56	14
57	16
58	2
59	76
60	3
65	6
69	8
70	3
71	2
74	4
75	18
76	12
77	20
78	14
79	11
80	4
81	5
82	4
83	2
85	2
89	2
90	3
91	4
92	4
93	6
94	2
99	1
101	2
102	3
103	41
104	264
105	49
106	12
107	17
108	11
109	2
111	4
115	2
117	10
118	31
119	14
120	13
121	7
122	2
129	2
130	4
131	6
132	187
133	54
134	41
135	16
136	10
137	3
138	9
139	3
142	1
144	3
145	6
146	24
147	37
148	39
149	109
150	14
151	6
153	5
155	1
157	6
159	15
160	11
161	102
162	533
163	107
164	29
165	12
166	5
171	5
173	11
174	17
175	32
176	39
177	51
178	45
179	18
180	4
181	7
182	82
183	6
186	2
187	4
188	8
189	14
190	241
191	68
192	37
193	21
194	8
195	11
196	2
197	9
200	5
201	7
202	9
203	16
204	21
205	75
206	43
207	37
208	17
209	13
210	3
215	5
216	3
217	14
218	17
219	83
220	351
221	124
222	28
223	17
224	3
225	5
229	4
231	19
232	13
233	70
234	33
235	92
236	26
237	32
238	7
239	5
245	6
246	3
247	11
248	134
249	81
250	16
251	10
252	2
253	5
257	5
259	31
260	11
261	29
263	55
264	25
265	86
266	21
267	29
268	3
269	3
270	4
273	3
274	1
275	10
276	15
277	62
278	13
279	39
280	8
281	7
290	11
291	126
292	27
293	364
294	49
295	101
296	12
297	1
302	1
303	5
304	3
305	3
306	119
307	41
308	9
309	14
310	2
311	1
314	1
318	6
319	15
320	4
321	12
322	4
323	74
324	12
333	5
334	4
335	18
336	7
337	39
338	6
339	3
346	1
349	265
350	55
351	11
363	2
364	334
365	73
366	37
367	77
368	11
372	2
379	3
381	2
385	1
391	2
393	4
394	11
395	9999
396	1904
397	398
398	47
399	9
426	234
427	49
428	8
