Mass Spectrum: 1,3-Dioxolan-2-one, 4,5-bis(methylene)-
Formula: C5 H4 O3
CAS: 62458-20-2
Molecular weight: 112
m/z	RELATIVE INTENSITY
28	600
39	1400
40	700
42	9999
68	3300
112	9900
