Mass Spectrum: Methanol, chloro-, acetate
Formula: C3 H5 Cl O2
CAS: 625-56-9
Molecular weight: 108
Origin: ASES Database, Dalian Institute, P.R. China
m/z	RELATIVE INTENSITY
42	1381
43	9999
44	1651
49	2792
51	1000
65	330
73	1131
