Mass Spectrum: 2-Hexanol, 2-methyl-
Formula: C7 H16 O
CAS: 625-23-0
Molecular weight: 116
Origin: Japan AIST/NIMC Database- Spectrum MS-NW-3387
m/z	RELATIVE INTENSITY
15	139
18	30
26	60
27	539
28	90
29	509
30	10
31	639
32	20
37	10
38	30
39	479
40	80
41	1259
42	80
43	999
44	40
45	1049
46	30
49	10
50	30
51	50
52	20
53	90
54	20
55	729
56	569
57	619
58	259
59	9999
60	349
61	20
65	20
67	30
68	20
69	359
70	70
71	99
72	10
73	30
79	10
81	10
83	379
84	30
98	70
99	20
101	2069
102	129
103	10
