Mass Spectrum: 2-Butanol, 2-methyl-, acetate
Formula: C7 H14 O2
CAS: 625-16-1
Molecular weight: 130
Origin: W. UTILIZATION R & D DIV., U.S. DEPT. OF AGRIC., ALBANY, CAL.
m/z	RELATIVE INTENSITY
18	278
27	570
29	820
31	227
39	680
40	89
41	1020
42	934
43	9999
44	96
45	251
51	69
53	275
54	113
55	2901
56	76
57	69
58	69
59	2060
60	134
61	89
69	51
70	2822
71	1885
72	182
73	2300
74	103
101	1339
115	474
