Mass Spectrum: 2-Pentene, 2,4-dimethyl-
Formula: C7 H14
CAS: 625-65-0
Molecular weight: 98
Origin: A.STEFANI ZURICH TECHNICAL COLLEGE, ZURICH, SWITZERLAND
m/z	RELATIVE INTENSITY
15	100
26	50
27	1300
28	200
29	1050
38	100
39	1700
40	300
41	3900
42	250
43	2100
44	100
50	100
51	250
52	100
53	500
54	150
55	9999
56	850
57	200
65	200
67	700
69	350
70	80
77	100
79	150
81	150
82	150
83	9250
84	550
97	50
98	2500
99	200
