Mass Spectrum: Butanedioic acid, hydroxy-, diethyl ester, (.+/-.)-
Formula: C8 H14 O5
CAS: 626-11-9
Molecular weight: 190
Origin: RADIAN CORP
m/z	RELATIVE INTENSITY
14	150
15	820
16	20
18	30
19	670
26	610
27	3890
28	440
29	8190
30	210
31	710
39	20
41	150
42	830
43	5720
44	2260
45	1530
46	40
47	1230
55	130
56	80
57	30
58	70
59	20
60	470
61	160
62	10
69	160
70	60
71	9999
72	820
73	210
74	90
75	2010
76	120
85	20
87	140
88	620
89	4290
90	310
102	10
115	70
116	310
117	8300
118	700
119	50
144	170
145	750
191	70
