Mass Spectrum: Butane, 1-methoxy-
Formula: C5 H12 O
CAS: 628-28-4
Molecular weight: 88
Origin: Japan AIST/NIMC Database- Spectrum MS-NW-9156
m/z	RELATIVE INTENSITY
15	259
18	10
26	50
27	439
28	159
29	709
30	20
31	159
32	10
33	90
38	20
39	249
40	40
41	819
42	139
43	149
44	40
45	9999
46	229
47	169
50	10
51	10
53	30
54	10
55	169
56	1999
57	229
58	30
59	249
60	30
71	30
73	10
87	40
88	80
