Mass Spectrum: Ethane, 1,2-diethoxy-
Formula: C6 H14 O2
CAS: 629-14-1
Molecular weight: 118
Origin: James Little, Eastman Chem. Company
m/z	RELATIVE INTENSITY
15	250
19	130
26	150
27	1311
28	420
29	3363
30	110
31	8227
32	80
41	950
42	120
43	1341
44	870
45	4984
46	140
47	360
51	160
57	70
58	110
59	9999
60	380
61	320
72	560
73	1010
74	6876
75	410
118	210
119	130
