Mass Spectrum: 7H-Dibenzo(a,g)carbazole, 12,13-dihydro-
Formula: C20 H15 N
CAS: 63077-00-9
Molecular weight: 269
Origin: Chemical Concepts
m/z	RELATIVE INTENSITY
26	10
27	106
38	27
39	118
41	10
50	65
51	110
52	34
62	47
63	119
64	27
65	35
74	58
75	86
76	50
77	61
81	13
86	33
87	63
88	44
89	83
90	19
91	16
93	11
94	39
98	25
99	36
100	43
101	35
102	33
106	52
107	45
108	13
110	19
111	21
112	35
113	79
114	40
115	47
116	20
118	68
119	163
120	115
121	70
122	27
123	16
125	37
126	161
127	367
128	29
131	14
132	108
133	430
134	989
135	190
137	22
138	20
139	68
140	40
141	13
149	19
150	114
151	111
152	69
153	17
161	20
162	37
163	97
164	65
165	48
166	20
174	29
175	37
176	40
177	35
186	21
187	66
188	63
189	62
190	58
191	34
192	16
198	15
199	20
200	41
201	36
202	36
203	14
211	41
212	39
213	118
214	79
215	65
216	32
224	25
225	38
226	84
227	62
228	48
235	21
236	37
237	192
238	193
239	475
240	283
241	129
242	40
250	38
251	76
252	105
253	109
254	124
255	29
262	64
263	70
264	465
265	749
266	1541
267	4306
268	9265
269	9999
270	2209
271	250
