Mass Spectrum: 2-Propanone, 1,1-dimethoxy-
Formula: C5 H10 O3
CAS: 6342-56-9
Molecular weight: 118
Origin: Japan AIST/NIMC Database- Spectrum MS-NW-8331
m/z	RELATIVE INTENSITY
13	20
14	109
15	1279
16	30
18	10
25	10
26	60
27	149
28	249
29	1139
30	60
31	2349
32	70
33	90
38	10
39	30
40	10
41	50
42	189
43	2049
44	179
45	729
46	20
47	3589
48	90
53	10
55	40
56	20
57	30
58	50
59	1309
60	60
61	30
72	99
73	30
74	10
75	9999
76	339
77	50
85	30
86	10
87	1239
88	60
89	30
101	10
117	10
