Mass Spectrum: 1,4-Cyclohexanedione
Formula: C6 H8 O2
CAS: 637-88-7
Molecular weight: 112
Origin: Chemical Concepts
m/z	RELATIVE INTENSITY
26	2992
27	7418
28	554
29	440
30	62
31	130
33	4
36	21
37	204
38	330
39	977
40	237
41	623
42	3110
43	500
44	47
45	7
48	7
49	75
50	252
51	203
52	95
53	401
54	425
55	4575
56	9999
57	2924
58	137
59	9
60	12
61	49
62	59
63	61
64	9
65	54
66	127
67	271
68	65
69	327
70	500
71	38
72	3
73	10
74	8
77	6
78	8
79	10
80	3
81	17
82	34
83	767
84	396
85	80
86	6
93	12
94	10
95	17
96	4
97	207
98	13
99	3
110	5
111	185
112	9228
113	575
114	49
115	3
