Mass Spectrum: 4-Benzyloxyaniline
Formula: C13 H13 N O
CAS: 6373-46-2
Molecular weight: 199
Origin: Japan AIST/NIMC Database- Spectrum MS-NW-6863
m/z	RELATIVE INTENSITY
26	20
27	99
28	80
30	10
39	309
40	20
41	109
42	20
50	50
51	169
52	199
53	359
54	99
55	10
61	10
62	50
63	149
64	60
65	709
66	60
74	10
75	10
76	10
77	40
78	30
79	30
80	869
81	60
86	10
89	109
90	50
91	3139
92	269
93	20
105	10
107	10
108	9999
109	749
110	50
115	20
128	20
141	10
152	10
153	20
167	10
168	10
170	10
181	10
196	10
198	10
199	3479
200	539
201	40
