Mass Spectrum: 3,5-Dichlorophenyl isothiocyanate
Formula: C7 H3 Cl2 N S
CAS: 6590-93-8
Molecular weight: 203
Origin: NIST Mass Spectrometry Data Center, 1994
m/z	RELATIVE INTENSITY
25	54
32	364
35	168
36	200
37	830
38	630
39	146
44	479
45	222
46	43
47	222
48	125
49	594
50	1463
51	322
52	53
56	68
57	68
58	287
59	67
60	377
61	825
62	827
63	589
64	353
65	119
66	107
68	50
69	205
70	765
71	156
72	312
73	1223
74	2783
75	1972
76	247
79	328
81	178
82	144
83	358
84	750
85	595
86	347
87	435
88	625
89	100
93	51
94	86
95	81
96	75
97	341
98	207
99	310
100	567
101	657
102	467
103	107
105	92
106	132
107	196
108	231
109	2210
110	477
111	707
112	123
118	48
119	61
120	39
124	586
125	39
126	190
131	42
132	145
133	1165
134	99
135	204
136	231
137	63
138	87
141	44
142	44
145	2566
146	263
147	1722
148	109
149	270
152	45
159	338
160	47
161	226
167	253
168	1345
169	228
170	518
171	699
172	93
173	436
175	101
176	181
178	123
203	9999
204	958
205	6569
206	612
207	1271
208	106
209	65
