Mass Spectrum: Uracil Mustard
Formula: C8 H11 Cl2 N3 O2
CAS: 66-75-1
Molecular weight: 251
Origin: OGDEN BioServices Corp., NCI, Rockville, MD 20852
m/z	RELATIVE INTENSITY
41	3632
42	3394
43	1136
44	1502
45	166
46	11
47	79
48	84
49	1027
50	65
51	546
52	1248
53	1448
54	4419
55	2369
56	1269
57	203
58	75
59	87
60	74
61	464
62	626
63	8715
64	651
65	3356
66	393
67	908
68	2006
69	5048
70	1740
71	238
72	30
73	31
74	63
75	95
77	735
78	828
79	146
80	596
81	768
82	1423
83	1360
84	792
85	275
86	137
87	36
88	270
90	2410
91	109
92	881
93	116
94	262
95	2911
96	443
97	640
98	60
99	89
100	17
101	29
102	49
103	84
104	297
105	71
106	137
107	148
108	202
109	772
110	741
111	302
112	4123
113	224
114	44
115	32
116	152
117	182
118	224
119	97
120	98
121	97
122	85
123	604
124	246
125	261
126	3208
127	211
128	45
129	24
130	45
131	1269
132	47
133	458
134	55
135	85
136	194
137	120
138	2859
139	518
140	4330
141	253
142	61
143	109
144	75
145	576
146	86
147	175
148	30
149	43
150	41
151	218
152	422
153	4634
154	577
155	54
156	26
157	46
158	19
159	177
160	19
161	66
162	73
163	35
164	71
166	3359
167	289
168	63
169	11
170	8
171	49
172	15
173	62
174	42
175	19
176	17
177	23
178	2179
179	9847
180	1999
181	202
182	20
183	4
184	25
185	7
186	13
187	82
188	102
189	146
190	44
191	41
192	6
195	17
196	7
197	8
198	31
199	4
200	44
202	9999
203	908
204	3701
205	330
206	30
207	37
209	12
211	10
213	32
214	93
215	2731
216	1155
217	974
218	364
219	37
224	8
226	3
233	7
241	3
246	7
247	25
248	4
249	4
250	24
251	1290
252	334
253	835
254	217
255	147
256	34
