Mass Spectrum: 5-Methyl-5-hexen-3-ol
Formula: C7 H14 O
CAS: 67760-89-8
Molecular weight: 114
Origin: NIST Mass Spectrometry Data Center, 1990.
m/z	RELATIVE INTENSITY
15	363
26	328
27	2565
28	1650
29	3223
31	3367
32	227
38	335
39	2987
40	816
41	6802
42	516
43	1166
44	342
50	261
51	367
52	162
53	616
54	236
55	1691
56	9999
57	5019
58	727
59	5565
60	177
67	443
69	237
79	210
81	487
83	173
85	1766
