Mass Spectrum: 3-(4-Methoxyphenyl)-1,1-dimethylurea
Formula: C10 H14 N2 O2
CAS: 7160-02-3
Molecular weight: 194
Origin: Chemical Concepts
m/z	RELATIVE INTENSITY
30	57
39	105
41	198
42	270
43	115
44	1280
45	411
46	40
51	144
52	276
53	227
56	186
58	30
63	94
64	114
65	132
67	54
72	9999
73	322
77	83
78	196
79	149
80	148
81	53
90	56
92	97
95	256
106	188
107	37
108	119
109	65
121	270
122	942
123	91
124	320
134	456
135	48
136	114
149	3105
150	417
151	86
179	23
193	53
194	4597
195	640
196	57
