Mass Spectrum: Benzene, 1,1'-butylidenebis-
Formula: C16 H18
CAS: 719-79-9
Molecular weight: 210
Origin: NIST Mass Spectrometry Data Center, 1990.
m/z	RELATIVE INTENSITY
27	265
29	71
38	33
39	292
40	43
41	203
43	84
50	145
51	425
52	100
53	59
62	61
63	291
64	55
65	300
70	38
74	70
75	102
76	177
77	546
78	202
79	59
82	135
87	56
88	57
89	267
90	56
91	713
92	63
101	37
102	149
103	223
104	69
105	60
113	46
115	532
116	80
117	71
126	61
127	92
128	232
129	50
139	210
140	36
141	112
150	40
151	223
152	1799
153	269
163	147
164	308
165	3077
166	1292
167	9999
168	1537
169	94
176	46
177	31
178	156
179	82
210	1254
211	221
