Mass Spectrum: 2,1-Benzisoxazole, 5-chloro-3-phenyl-
Formula: C13 H8 Cl N O
CAS: 719-64-2
Molecular weight: 229
Origin: NIST Mass Spectrometry Data Center, 1994
m/z	RELATIVE INTENSITY
16	56
17	32
18	131
26	215
27	663
28	245
29	93
30	216
35	76
36	73
37	606
38	981
39	1213
40	91
47	232
49	569
50	2470
51	6324
52	568
53	356
60	96
61	749
62	1367
63	1712
64	802
65	239
66	45
70	384
71	72
72	200
73	1146
74	1284
75	1025
76	834
77	9523
78	676
79	38
81	69
83	734
84	148
85	198
86	551
87	716
88	895
89	598
90	196
91	135
92	312
97	474
98	842
99	438
100	529
101	235
102	175
105	1109
106	92
109	75
110	198
111	314
112	154
113	495
114	75
115	548
116	152
122	82
123	112
124	385
125	146
126	1146
127	146
128	301
135	54
136	186
137	331
138	642
139	2271
140	2346
141	255
149	90
151	92
152	62
154	123
161	56
162	135
163	290
164	1062
165	56
166	9999
167	1416
168	133
173	177
174	215
175	106
176	72
194	7708
195	1284
196	105
200	601
201	1583
202	423
203	538
204	98
229	8521
230	1257
231	2863
232	415
233	28
