Mass Spectrum: Endrin
Formula: C12 H8 Cl6 O
CAS: 72-20-8
Molecular weight: 378
Origin: Japan AIST/NIMC Database- Spectrum MS-NW- 517
m/z	RELATIVE INTENSITY
14	40
15	90
17	20
18	70
25	20
26	369
27	3069
28	569
29	1469
30	50
31	289
32	10
35	159
36	389
37	319
38	479
39	4279
40	549
41	1159
42	80
43	159
44	50
45	10
47	239
48	30
49	289
50	969
51	1929
52	649
53	3389
54	2349
55	1339
56	139
57	449
58	10
59	10
60	169
61	679
62	789
63	1199
64	149
65	1249
66	1999
67	5699
68	459
69	439
70	109
71	139
72	339
73	1399
74	1009
75	1299
76	149
77	3369
78	699
79	6139
80	809
81	9999
82	5659
83	509
84	569
85	819
86	829
87	639
88	159
89	499
90	80
91	429
92	60
93	149
94	209
95	719
96	439
97	779
98	569
99	1109
100	369
101	1599
102	319
103	509
104	149
105	109
106	149
107	849
108	829
109	949
110	389
111	799
112	229
113	2819
114	329
115	979
116	99
117	429
118	139
119	389
120	369
121	539
122	229
123	429
124	99
125	299
126	229
127	199
128	90
129	349
130	209
131	329
132	249
133	789
134	329
135	1079
136	389
137	779
138	489
139	1129
140	229
141	439
142	70
143	659
144	149
145	509
146	359
147	2439
148	519
149	1939
150	289
151	529
152	70
153	70
154	40
155	159
156	90
157	329
158	119
159	619
160	299
161	459
162	529
163	379
164	199
165	289
166	50
167	609
168	189
169	749
170	589
171	579
172	499
173	1779
174	559
175	1229
176	219
177	369
178	90
179	229
180	399
181	1159
182	619
183	1619
184	449
185	899
186	189
187	239
188	50
189	50
190	40
191	999
192	149
193	1689
194	449
195	1159
196	809
197	569
198	499
199	269
200	149
201	319
202	189
203	479
204	519
205	499
206	549
207	1159
208	629
209	2219
210	659
211	1209
212	299
213	259
214	509
215	419
216	739
217	1239
218	519
219	1219
220	329
221	539
222	129
223	139
224	50
225	139
226	259
227	589
228	389
229	659
230	569
231	439
232	449
233	269
234	189
235	729
236	469
237	1169
238	389
239	899
240	329
241	539
242	329
243	3189
244	1529
245	3269
246	1469
247	1279
248	669
249	439
250	609
251	899
252	479
253	939
254	319
255	589
256	189
257	249
258	90
259	80
260	40
261	3869
262	339
263	6069
264	579
265	3999
266	449
267	1399
268	209
269	329
270	80
271	759
272	349
273	779
274	359
275	489
276	219
277	799
278	299
279	3609
280	729
281	4019
282	669
283	1869
284	299
285	419
286	70
287	139
288	30
289	199
290	109
291	199
292	119
293	90
294	50
295	30
296	20
297	10
298	20
299	30
300	30
301	70
302	30
303	80
304	10
305	60
306	30
307	729
308	159
309	969
310	179
311	509
312	99
313	269
314	80
315	1039
316	169
317	1409
318	199
319	879
320	109
321	269
322	40
323	60
324	10
325	80
326	20
327	129
328	20
329	90
330	10
331	30
333	10
341	20
342	20
343	1169
344	189
345	1829
346	249
347	1169
348	159
349	409
350	70
351	80
352	30
353	20
354	20
356	10
378	70
379	10
380	139
381	20
382	109
383	10
384	50
386	10
