Mass Spectrum: 2(5H)-Thiophenone, 5-methyl-
Formula: C5 H6 O S
CAS: 7210-64-2
Molecular weight: 114
m/z	RELATIVE INTENSITY
37	200
38	300
39	1100
40	200
41	300
42	150
43	200
44	400
45	1500
46	200
47	150
49	200
50	600
51	500
52	300
53	1700
54	300
55	1100
56	150
57	300
58	700
59	3300
60	1500
61	200
68	150
69	500
70	200
71	3900
72	400
73	300
76	300
81	150
82	150
85	1200
86	4300
87	500
88	300
99	600
112	200
113	200
114	9999
115	1100
116	500
