Mass Spectrum: .beta. Carotene
Formula: C40 H56
CAS: 7235-40-7
Molecular weight: 536
Origin: S.KUSHWAHA DEPT. BIOCHEM., UNIV. OF OTTAWA, OTTAWA, CANADA
m/z	RELATIVE INTENSITY
35	300
36	1900
37	400
38	800
39	2200
40	700
41	5800
42	1600
43	9999
45	1300
46	400
50	1000
51	1200
52	400
53	1400
54	700
55	6000
56	1400
57	3200
58	1700
59	300
60	500
61	300
62	300
63	400
64	300
65	1000
66	600
67	2400
68	900
69	6600
70	1300
71	1700
72	300
73	500
74	500
75	300
76	800
77	3000
78	1100
79	2400
80	700
81	3600
82	1100
83	2500
84	1000
85	1000
86	300
87	300
89	300
90	200
91	4700
92	1300
93	2600
94	700
95	3600
96	1000
97	1400
98	700
99	500
100	300
101	300
103	500
104	1200
105	5800
106	1600
107	2700
108	800
109	2100
110	800
111	1000
112	500
113	300
115	1000
116	500
117	1100
118	400
119	4100
120	1000
121	2400
122	1200
123	1600
124	600
125	900
126	600
127	700
128	1200
129	1600
130	700
131	1700
132	600
133	2200
134	600
135	1200
136	400
137	1100
138	400
139	400
140	200
141	1200
142	1000
143	1900
144	1000
145	2400
146	700
147	1300
148	600
149	1000
150	400
151	400
152	1000
153	600
154	400
155	1300
156	900
157	2100
158	700
159	2000
160	500
161	900
162	300
163	300
164	200
165	900
166	500
167	700
168	400
169	1100
170	500
171	1400
172	500
173	1000
174	300
175	800
176	300
177	1000
178	400
179	600
180	400
181	700
182	400
183	1000
184	400
185	1000
186	300
187	700
189	500
190	300
191	300
192	300
193	600
194	400
195	900
196	500
197	1000
198	400
199	800
200	300
201	400
202	300
203	700
204	300
205	500
206	300
207	700
208	400
209	1000
210	300
211	600
212	300
213	400
215	400
217	300
219	300
221	400
222	300
223	500
225	400
227	300
233	300
235	300
236	400
237	500
239	400
241	400
243	400
253	300
254	300
255	600
256	400
257	300
258	300
267	400
268	1000
269	400
279	300
281	400
282	200
283	200
293	200
333	300
334	200
346	200
347	200
359	200
364	200
365	200
366	200
367	200
368	500
369	300
370	200
371	200
376	300
378	700
380	200
390	200
397	300
399	200
416	200
430	700
431	300
442	200
444	2200
445	900
446	200
457	200
532	300
533	200
534	700
535	500
536	8600
537	4000
538	1100
539	200
