Mass Spectrum: Dibenzothiophene, 4-methyl-
Formula: C13 H10 S
CAS: 7372-88-5
Molecular weight: 198
m/z	RELATIVE INTENSITY
36	10
37	60
38	140
39	420
40	20
41	20
42	10
43	10
44	40
45	350
46	10
47	20
48	10
49	20
50	220
51	280
52	50
53	20
54	10
55	10
56	10
57	30
58	40
59	20
60	10
61	80
62	210
63	420
64	60
65	50
66	20
67	10
68	10
69	430
70	50
71	60
72	20
73	40
74	220
75	230
76	300
77	130
78	30
79	20
80	10
81	50
82	90
83	30
84	30
85	190
86	320
87	170
88	60
89	110
90	20
91	50
92	20
93	140
94	30
95	40
96	20
97	170
98	520
99	1071
100	80
101	60
102	60
103	20
104	10
105	40
106	30
107	10
108	20
109	20
110	40
111	40
112	10
113	90
114	70
115	90
116	10
117	40
118	20
119	20
120	20
121	50
122	20
123	10
124	10
125	30
126	110
127	150
128	40
129	10
130	10
131	10
132	20
133	10
134	40
135	10
136	10
137	50
138	90
139	230
140	40
141	20
142	10
143	10
144	10
145	70
146	20
147	40
148	10
149	20
150	120
151	220
152	661
153	300
154	60
155	10
156	10
157	10
158	80
159	10
160	10
161	10
162	20
163	150
164	110
165	721
166	110
167	10
168	20
169	80
170	90
171	460
172	70
173	30
174	10
175	10
176	10
177	10
178	10
179	10
180	10
181	10
182	70
183	20
184	40
185	10
186	10
189	10
190	10
191	10
192	10
193	20
194	30
195	520
196	340
197	5385
198	9999
199	1682
200	540
201	70
