Mass Spectrum: Methane, bromochloro-
Formula: C H2 Br Cl
CAS: 74-97-5
Molecular weight: 128
Origin: Japan AIST/NIMC Database- Spectrum MS-NW- 917
m/z	RELATIVE INTENSITY
12	30
13	70
14	119
35	209
36	60
37	60
38	20
47	719
48	519
49	9999
50	239
51	3099
52	30
63	70
64	80
65	20
79	689
80	139
81	699
82	139
84	30
86	20
91	489
92	139
93	1969
94	139
95	1509
96	20
126	20
127	60
128	4749
129	129
130	6099
131	90
132	1469
133	10
