Mass Spectrum: Butanedioic acid, 2,3-diphenyl-
Formula: C16 H14 O4
CAS: 7584-72-7
Molecular weight: 270
Origin: Chemical Concepts
m/z	RELATIVE INTENSITY
25	4
26	13
27	185
28	57
29	111
30	9
31	44
35	3
36	39
37	20
38	64
39	447
40	77
41	64
42	16
43	31
44	55
45	152
46	17
47	23
49	9
50	202
51	758
52	172
53	119
54	12
55	53
56	9
57	19
58	12
59	12
60	14
61	19
62	88
63	389
64	111
65	314
66	108
67	20
68	11
69	18
70	10
71	18
72	2
73	22
74	89
75	169
76	552
77	2106
78	363
79	2861
80	189
81	19
82	64
83	145
84	20
85	20
86	27
87	51
88	147
89	915
90	420
91	4210
92	447
93	37
94	359
95	38
96	17
97	16
98	26
99	18
100	10
101	51
102	283
103	721
104	152
105	488
106	65
107	3288
108	255
109	17
110	6
111	10
112	25
113	30
114	16
115	171
116	27
117	18
118	2978
119	320
120	51
121	84
122	123
123	20
124	6
125	13
126	59
127	65
128	73
129	26
130	12
131	29
132	7
133	22
134	23
135	9999
136	1154
137	107
138	15
139	89
140	14
141	45
142	10
143	6
144	3
145	5
146	5
147	63
148	53
149	19
150	70
151	174
152	338
153	115
154	19
155	8
156	3
157	1
158	1
161	3
162	4
163	32
164	47
165	701
166	280
167	77
168	11
169	5
170	5
171	4
173	2
174	13
175	28
176	242
177	234
178	1271
179	1242
180	1006
181	364
182	61
183	9
188	3
189	12
190	8
191	11
192	52
193	32
194	21
195	18
196	6
197	11
198	4
199	1
200	1
202	1
203	1
204	3
205	26
206	112
207	65
208	83
209	20
210	5
211	1
212	2
213	1
218	1
219	6
220	1
221	4
222	8
223	29
224	532
225	121
226	2776
227	469
228	47
229	4
233	1
234	13
235	8
236	5
237	1
238	16
239	4
250	4
251	5
252	865
253	158
254	22
255	2
256	4
269	12
270	221
271	38
272	5
