Mass Spectrum: 2-Butene, 1,4-dichloro-
Formula: C4 H6 Cl2
CAS: 764-41-0
Molecular weight: 124
Origin: R. F. HUDSON UNIVERSITY OF KENT, CANTERBURY
m/z	RELATIVE INTENSITY
27	3100
29	600
31	200
36	700
37	100
38	400
39	2300
41	700
43	100
49	900
50	700
51	1300
52	300
53	4700
54	1300
57	1000
61	200
62	2500
63	300
64	700
75	9999
76	300
77	3200
85	400
86	300
87	200
88	1700
89	4500
90	700
91	1400
124	1700
126	1100
128	100
