Mass Spectrum: 2-Nitro-2-methyl-1,3-propanediol
Formula: C4 H9 N O4
CAS: 77-49-6
Molecular weight: 135
Origin: Chemical Concepts
m/z	RELATIVE INTENSITY
25	47
26	262
27	1959
28	1260
29	4063
30	2954
31	5159
33	25
36	21
37	131
38	346
39	3231
40	1069
41	9999
42	1357
43	4367
44	283
45	417
46	147
47	262
48	108
49	22
50	23
51	40
52	33
53	148
54	52
55	289
56	86
57	1574
58	2624
59	2626
60	127
69	439
70	1096
71	2403
72	143
73	164
75	73
76	447
77	22
85	31
87	186
88	295
89	114
104	6
105	285
106	11
