Mass Spectrum: 9,10-Anthracenedione, 1,5-dichloro-
Formula: C14 H6 Cl2 O2
CAS: 82-46-2
Molecular weight: 276
Origin: Japan AIST/NIMC Database- Spectrum MS-NW-8121
m/z	RELATIVE INTENSITY
27	10
28	50
29	10
35	20
36	99
37	50
38	60
39	50
43	20
49	60
50	179
51	109
53	80
55	20
57	20
60	10
61	109
62	159
63	80
67	20
69	10
71	10
72	10
73	209
74	1159
75	2539
76	259
77	109
78	10
79	50
80	50
81	10
83	10
84	249
85	109
86	179
87	149
88	20
89	30
91	10
92	1079
93	439
94	40
96	10
97	119
98	349
99	479
100	129
101	50
102	10
103	50
104	10
106	669
107	239
108	80
109	239
110	1439
111	669
112	339
113	60
120	159
121	99
122	169
123	439
124	509
125	279
126	50
132	20
133	40
134	30
135	60
136	20
137	20
138	279
139	169
140	50
141	10
145	70
146	40
147	99
148	90
149	1099
150	4759
151	689
152	50
157	10
158	20
159	99
160	60
161	70
162	40
163	10
170	20
171	10
172	10
173	30
175	20
177	10
179	20
183	60
184	759
185	2799
186	679
187	929
188	149
189	10
194	60
195	20
196	40
197	30
198	10
199	10
207	30
208	10
211	10
212	20
213	1199
214	319
215	419
216	99
217	10
218	10
219	249
220	3739
221	649
222	2399
223	349
224	409
225	60
241	3019
242	679
243	1049
244	219
245	30
247	179
248	5919
249	949
250	3839
251	559
252	649
253	80
254	10
275	1219
276	9999
277	2299
278	6469
279	1099
280	1119
281	159
282	20
