Mass Spectrum: 2-Methyl-3-decanol
Formula: C11 H24 O
CAS: 83909-79-9
Molecular weight: 172
Origin: NIST Mass Spectrometry Data Center, 1990.
m/z	RELATIVE INTENSITY
27	1464
28	642
29	1766
31	444
39	918
41	3530
42	638
43	3308
44	710
45	577
53	279
55	4784
56	771
57	2286
58	189
59	115
66	121
67	411
69	9999
70	703
71	388
73	3757
74	182
81	185
82	213
83	689
84	138
85	148
86	162
97	109
110	310
111	2006
112	198
127	275
128	295
129	1719
130	151
