Mass Spectrum: Benzoic acid, 2-(4-methylbenzoyl)-
Formula: C15 H12 O3
CAS: 85-55-2
Molecular weight: 240
Origin: Japan AIST/NIMC Database- Spectrum MS-NW-4127
m/z	RELATIVE INTENSITY
15	40
16	10
17	20
18	70
26	20
27	80
28	109
29	10
37	20
38	50
39	649
40	50
41	149
42	10
43	70
44	119
45	20
50	219
51	309
52	40
53	50
56	10
57	10
58	20
61	10
62	70
63	239
64	90
65	1799
66	99
67	10
69	20
70	10
71	10
73	10
74	70
75	80
76	229
77	189
78	20
79	10
81	10
82	40
83	20
84	10
86	20
87	30
88	20
89	229
90	209
91	3249
92	679
93	429
94	30
97	10
98	10
99	10
102	10
104	169
105	179
106	10
107	10
108	10
113	10
115	50
116	10
118	90
119	9999
120	919
121	319
122	30
126	10
127	10
128	30
129	10
133	50
139	50
140	10
141	10
149	1939
150	189
151	70
152	279
153	99
154	10
155	10
163	30
164	40
165	409
166	139
167	80
168	20
169	10
176	10
177	10
178	20
179	40
180	20
181	2439
182	359
183	40
193	40
194	179
195	539
196	1489
197	249
198	20
207	20
209	40
210	10
211	90
212	60
213	10
221	70
222	99
223	179
224	70
225	20
238	10
239	40
240	2889
241	499
242	60
