Mass Spectrum: Benzaldehyde, 2,3-dimethoxy-
Formula: C9 H10 O3
CAS: 86-51-1
Molecular weight: 166
Origin: NIST Mass Spectrometry Data Center
m/z	RELATIVE INTENSITY
14	80
15	851
16	20
18	30
25	20
26	220
27	170
28	230
29	911
30	80
31	140
32	20
36	10
37	260
38	500
39	991
40	80
41	851
42	60
43	150
44	10
45	50
46	10
48	10
49	160
50	1511
51	2772
52	2192
53	1231
54	180
55	490
56	20
59	40
60	30
61	310
62	771
63	1752
64	681
65	2642
66	370
67	1091
68	80
69	240
70	10
71	10
73	90
74	530
75	440
76	3263
77	4494
78	1381
79	1742
80	1531
81	210
82	30
85	10
86	10
87	10
89	80
90	1331
91	1001
92	1081
93	1411
94	400
95	2132
96	140
97	10
102	20
103	40
104	1261
105	2232
106	881
107	2372
108	2983
109	1201
110	100
111	10
118	350
119	1461
120	2312
121	1581
122	1531
123	1601
124	300
125	20
127	20
128	20
130	10
131	30
133	1261
134	150
135	811
136	1922
137	1371
138	210
139	20
142	10
147	400
148	2853
149	1521
150	440
151	3733
152	340
153	30
163	10
165	1391
166	9999
167	1011
168	100
169	10
