Mass Spectrum: Borane, dichlorophenyl-
Formula: C6 H5 B Cl2
CAS: 873-51-8
Molecular weight: 158
Origin: Chemical Concepts
m/z	RELATIVE INTENSITY
25	51
26	245
27	234
28	32
35	104
36	108
37	173
38	167
39	241
41	14
43	14
45	24
46	119
47	117
48	57
49	144
50	756
51	989
52	197
53	24
55	14
59	47
60	159
61	243
62	66
63	43
65	31
67	16
69	14
70	287
71	997
72	177
73	446
74	300
75	146
76	134
77	473
78	112
79	28
80	309
81	1169
82	244
83	828
84	203
85	241
86	142
87	411
88	34
91	33
93	51
94	209
95	746
96	399
97	669
98	147
99	128
100	21
102	14
103	64
104	180
105	81
106	46
107	94
108	37
113	69
115	51
118	51
119	199
120	110
121	596
122	3277
123	9999
124	1796
125	3160
126	261
127	16
130	29
131	53
132	33
133	18
134	16
135	14
136	13
137	31
139	13
141	29
142	94
143	28
144	36
145	13
152	19
153	14
154	18
155	232
156	56
157	2152
158	8617
159	1914
160	5441
161	580
162	936
