Mass Spectrum: Benzene, 1,2,3,4-tetrachloro-5-nitro-
Formula: C6 H Cl4 N O2
CAS: 879-39-0
Molecular weight: 259
Origin: NIST Mass Spectrometry Data Center, 1994
m/z	RELATIVE INTENSITY
14	8
16	156
28	546
30	6286
32	131
35	668
36	674
37	1201
38	160
40	61
46	1206
47	661
48	201
49	538
54	65
59	98
60	639
61	789
62	194
63	138
65	91
71	716
72	936
73	2490
74	391
75	104
82	99
83	645
84	780
85	417
86	422
87	286
89	167
90	140
91	66
94	174
95	390
96	730
97	233
98	239
106	366
107	1587
108	5383
109	1087
110	1821
111	230
112	48
118	1874
119	330
120	1194
121	281
122	364
123	88
131	1009
132	246
133	631
134	78
135	102
141	457
142	1412
143	3735
144	1127
145	2252
146	389
147	424
153	80
155	87
156	40
159	42
165	56
166	237
167	83
168	272
169	49
170	92
177	2451
178	4164
179	2866
180	3937
181	1020
182	1211
183	168
184	160
192	57
194	1473
196	1518
197	149
198	726
199	51
200	51
201	8045
202	51
203	9999
204	51
205	4722
206	352
207	940
208	60
209	104
213	5560
215	6793
216	544
217	3288
218	246
219	705
221	60
224	203
226	192
228	71
229	503
231	617
232	58
233	323
235	73
243	81
245	119
247	65
259	3101
260	217
261	4040
262	283
263	1981
264	137
265	447
267	45
