Mass Spectrum: 1H-Indole-3-acetamide
Formula: C10 H10 N2 O
CAS: 879-37-8
Molecular weight: 174
Origin: EQUINE DRUG TESTING PROG. J.D.HENION,ETAL CORNELL U, ITHACA, NY
m/z	RELATIVE INTENSITY
38	270
39	430
40	220
41	270
42	1020
44	1810
45	200
46	140
50	500
51	890
52	320
55	280
56	110
57	200
58	300
62	150
63	310
64	160
65	130
69	50
71	50
74	220
75	370
76	560
77	1200
78	290
79	110
83	80
84	70
85	130
86	140
87	270
89	180
90	110
91	60
95	60
97	110
98	70
100	80
101	310
102	1160
103	860
104	130
105	170
106	60
114	70
115	70
116	110
117	150
118	150
123	50
128	620
129	2120
130	9999
131	2050
132	300
134	60
135	50
142	160
155	60
157	150
173	370
174	2030
175	270
