Mass Spectrum: 1,2-Dimethoxy-3,5-dichloro-benzene
Formula: C8 H8 Cl2 O2
CAS: 90283-01-5
Molecular weight: 206
Origin: ASES Database, Dalian Institute, P.R. China
m/z	RELATIVE INTENSITY
43	90
50	1080
62	680
63	780
75	590
84	290
85	1411
87	190
97	1080
99	2402
100	400
109	590
111	480
113	1381
120	900
127	3212
128	4303
129	1111
130	1481
133	900
135	90
141	490
145	590
148	1201
160	290
163	2292
165	1281
167	200
191	9999
193	6515
195	980
206	8617
208	5474
210	890
