Mass Spectrum: Pyrrolidine, 1-[4-(4-chlorophenyl)-3-phenyl-2-butenyl]-
Formula: C20 H22 Cl N
CAS: 91-82-7
Molecular weight: 311
Origin: AAFS Toxicology Section MS DB Committee, U. Alberta, Canada
m/z	RELATIVE INTENSITY
39	180
41	310
42	600
43	230
44	60
50	70
51	150
52	40
53	70
54	130
55	500
56	110
57	40
63	220
64	50
65	160
68	140
69	150
70	980
71	300
72	70
74	40
75	230
76	190
77	610
78	150
79	40
80	90
81	70
82	110
83	190
84	1201
85	80
88	110
89	690
90	160
91	2842
92	200
94	50
96	790
97	160
99	170
100	60
101	380
102	450
103	490
104	100
108	110
112	80
113	70
114	110
115	2171
116	460
117	180
118	40
125	2852
126	320
127	1601
128	1501
129	1351
130	380
131	190
137	70
138	270
139	110
140	120
141	40
142	40
143	120
144	60
149	190
150	70
151	150
152	170
153	60
156	400
157	110
162	250
163	270
164	150
165	410
166	90
170	130
171	50
176	210
177	110
178	490
179	170
184	260
185	60
186	1020
187	160
188	50
189	340
190	460
191	270
192	70
194	40
198	40
199	100
200	70
201	60
202	460
203	900
204	870
205	9999
206	1731
207	160
212	50
225	110
226	40
227	40
239	140
240	4123
241	710
242	1331
243	230
310	120
311	220
312	80
313	50
