Mass Spectrum: Butane, 2-ethoxy-2-methyl-
Formula: C7 H16 O
CAS: 919-94-8
Molecular weight: 116
Origin: A.QUAYLE SHELL LTD., THORNTON RES. CENT., CHESTER, CHES., UK
m/z	RELATIVE INTENSITY
27	668
29	1000
31	658
39	462
41	919
42	402
43	2492
44	125
45	427
53	175
55	2788
56	160
57	140
58	140
59	9999
60	402
70	587
71	2110
72	175
73	4371
74	296
87	7587
88	437
101	1105
102	120
