Mass Spectrum: Scopoletin
Formula: C10 H8 O4
CAS: 92-61-5
Molecular weight: 192
Origin: NIST Mass Spectrometry Data Center, 2010
m/z	RELATIVE INTENSITY
15	80
25	10
26	30
27	40
29	90
30	10
31	30
36	10
37	70
38	170
39	410
40	20
41	130
42	230
43	80
44	20
45	40
46	30
48	10
49	100
50	681
51	1381
52	230
53	651
54	60
55	60
58	10
59	40
60	40
61	130
62	260
63	460
64	240
65	781
66	160
67	90
68	20
69	3463
70	210
71	30
73	40
74	220
75	220
76	240
77	420
78	120
79	1651
80	190
81	561
82	60
83	10
84	10
85	40
86	50
87	50
88	20
89	30
90	20
91	40
92	350
93	270
94	20
95	70
96	160
98	10
101	10
103	40
104	30
105	240
106	30
107	310
108	60
109	50
110	10
117	10
119	40
120	200
121	2172
122	170
123	40
131	10
132	10
133	40
134	20
135	180
136	20
145	20
147	20
148	50
149	5135
150	450
151	50
161	30
162	10
163	100
164	2552
165	250
166	30
177	6105
178	601
179	70
180	10
190	10
192	9999
193	1071
194	130
195	10
