Mass Spectrum: L-Glucose
Formula: C6 H12 O6
CAS: 921-60-8
Molecular weight: 180
Origin: LAC, NIDDK, NIH, Bethesda, MD 20892
m/z	RELATIVE INTENSITY
41	1123
42	2761
43	8138
44	3854
45	3260
46	522
47	469
48	33
49	340
50	65
51	97
52	62
53	231
54	333
55	1712
56	1440
57	2891
58	786
59	701
60	5936
61	3766
62	345
63	65
64	49
65	49
66	36
67	86
68	278
69	937
70	400
71	2277
72	1456
73	9999
74	1418
75	227
76	156
77	404
78	250
79	119
80	10
81	114
82	85
83	238
84	283
85	1210
86	1334
87	476
88	126
89	440
90	400
91	498
92	26
93	31
94	31
95	81
96	67
97	454
98	323
99	163
100	105
101	616
102	838
103	1401
104	170
105	159
106	184
107	130
108	23
109	51
110	48
111	81
112	66
113	223
114	131
115	261
116	175
117	68
118	27
119	758
120	86
121	90
122	21
123	30
124	167
125	57
126	112
127	154
128	73
129	68
130	25
131	599
132	115
133	251
134	37
135	21
136	19
137	23
138	9
139	32
140	33
141	25
142	13
143	47
144	281
145	193
146	25
147	70
148	10
149	732
150	64
151	21
153	9
154	10
155	12
156	11
157	11
159	10
161	13
162	25
163	221
164	21
180	11
