Mass Spectrum: Phenol, 2,3,6-trichloro-
Formula: C6 H3 Cl3 O
CAS: 933-75-5
Molecular weight: 196
Origin: Japan AIST/NIMC Database- Spectrum MS-NW-6740
m/z	RELATIVE INTENSITY
12	10
24	10
25	40
26	30
28	50
29	80
31	40
35	119
36	189
37	439
38	179
39	40
44	40
45	90
47	149
48	1069
49	489
50	129
51	20
52	20
53	369
54	20
55	10
59	30
60	249
61	819
62	1009
63	519
64	30
65	70
66	829
67	539
68	80
71	139
72	369
73	679
74	199
75	199
76	20
77	40
80	199
81	119
82	30
83	179
84	119
85	129
86	50
87	219
88	10
89	80
90	189
91	50
94	20
95	90
96	369
97	3339
98	689
99	1409
100	219
101	30
102	10
106	70
107	349
108	109
109	249
110	40
111	50
118	20
119	10
120	10
123	10
124	30
125	279
126	90
127	99
128	30
130	10
131	99
132	2389
133	739
134	1579
135	459
136	299
137	70
138	10
141	10
143	30
144	20
145	10
146	10
160	2449
161	189
162	1589
163	119
164	269
165	20
167	239
168	20
169	239
170	20
171	80
195	40
196	9999
197	719
198	9749
199	649
200	3129
201	219
202	359
203	20
