Mass Spectrum: 1,2-Benzenediamine
Formula: C6 H8 N2
CAS: 95-54-5
Molecular weight: 108
Origin: Japan AIST/NIMC Database- Spectrum MS-NW-1719
m/z	RELATIVE INTENSITY
15	30
25	10
26	99
27	349
28	679
29	99
30	99
37	119
38	279
39	549
40	169
41	409
42	169
43	119
44	40
45	10
49	60
50	289
51	539
52	959
53	1259
54	939
55	109
56	70
61	60
62	99
63	409
64	399
65	319
66	149
67	239
68	40
69	30
74	20
75	60
76	109
77	60
78	219
79	189
80	4799
81	1699
82	149
89	10
90	139
91	409
92	60
93	10
105	109
106	50
107	2059
108	9999
109	729
110	20
