Mass Spectrum: Benzene, 1,1'-methylenebis[4-isocyano-
Formula: C15 H10 N2
CAS: 956-62-7
Molecular weight: 218
m/z	RELATIVE INTENSITY
86	2002
87	200
116	1601
117	200
190	3503
191	400
217	1702
218	9999
219	1702
220	200
