Mass Spectrum: Benzenamine, 2,4,6-tris(1,1-dimethylethyl)-
Formula: C18 H31 N
CAS: 961-38-6
Molecular weight: 261
Origin: NIST Mass Spectrometry Data Center, 1994
m/z	RELATIVE INTENSITY
5	9
9	10
13	6
15	151
17	3
18	68
20	13
21	5
22	5
27	152
28	51
29	1007
30	83
34	8
36	6
39	300
41	1587
42	162
43	164
44	31
46	5
50	9
51	72
52	48
53	129
54	49
55	211
56	5
57	1564
58	108
60	31
63	41
64	37
65	161
67	59
68	23
69	27
70	19
72	90
73	105
74	49
75	11
77	236
78	95
80	185
81	40
82	13
84	30
85	31
86	34
87	35
88	263
89	47
91	282
92	47
93	106
94	112
96	8
97	4
99	10
102	352
103	62
104	42
105	97
106	154
107	60
108	49
109	9
113	4
115	357
116	370
117	212
118	110
119	86
120	69
121	28
122	11
123	27
126	17
127	85
128	239
129	179
130	233
131	247
132	214
133	98
134	245
135	35
136	8
139	15
141	152
142	147
143	201
144	241
145	152
146	244
147	65
148	136
149	29
150	7
151	6
152	43
153	59
154	68
155	69
156	114
157	128
158	224
159	159
160	122
161	36
162	75
163	12
165	24
166	20
167	54
168	38
169	40
170	84
171	79
172	133
173	83
174	308
175	90
176	29
177	6
180	8
181	8
182	15
183	19
184	53
185	34
186	70
187	44
188	162
189	63
190	178
191	25
197	8
198	21
199	31
200	129
201	30
202	47
203	16
204	120
205	15
213	6
214	93
215	32
216	358
217	67
218	54
219	9
228	9
230	439
231	97
232	18
241	5
242	9
243	15
244	66
245	5
246	9999
247	1901
248	187
249	14
258	5
260	170
261	1701
262	334
263	42
