Mass Spectrum: Cyclohexanemethanol
Formula: C7 H14 O
CAS: 100-49-2
Molecular weight: 114
Origin: Chemical Concepts
m/z	RELATIVE INTENSITY
26	243
27	1705
28	945
29	1800
30	253
31	1159
33	29
37	62
38	110
39	1971
40	359
41	4791
42	730
43	975
44	357
45	1063
46	96
47	98
50	99
51	259
52	131
53	836
54	1571
55	9999
56	794
57	564
58	384
59	687
60	50
62	27
63	58
64	32
65	181
66	533
67	4970
68	1886
69	373
70	128
71	69
72	38
73	45
74	29
75	30
76	91
77	239
78	70
79	328
80	125
81	4646
82	2880
83	7343
84	871
85	106
95	557
96	4035
97	556
98	54
113	26
114	72
115	12
