Mass Spectrum: Anisole
Formula: C7 H8 O
CAS: 100-66-3
Molecular weight: 108
Origin: NIST Mass Spectrometry Data Center, 1990.
m/z	RELATIVE INTENSITY
13	38
14	103
15	509
18	19
25	30
26	169
27	290
28	118
29	236
30	46
31	70
32	38
37	364
38	934
39	3532
40	179
41	62
43	29
49	188
50	1427
51	1857
52	487
53	203
54	80
55	68
60	41
61	262
62	491
63	1171
64	772
65	7262
66	519
73	138
74	472
75	172
76	260
77	2082
78	7282
79	1793
80	171
91	39
92	236
93	1435
94	117
105	28
108	9999
109	796
110	44
